# PCG package for  MODFLOW-2005, generated by Flopy.
      1000        50         1         0
 1.000e-02 1.000e+00 1.000e+00         2         5         0 1.000e+00
