# DRN package for  MODFLOW-NWT, generated by Flopy.
      1061         0
      1061         0 # stress period 1
         1        71       230         274.768          1000.0
         1        71       231         275.009          1000.0
         1        71       232         278.015           200.0
         1        72       225         267.412          1000.0
         1        72       226         269.127          1000.0
         1        72       227         270.968          1000.0
         1        72       228         270.968          1000.0
         1        72       229         272.964          1000.0
         1        72       233         277.761           200.0
         1        73       222         265.456          1000.0
         1        73       223         265.456          1000.0
         1        73       224         265.935          1000.0
         1        73       233         277.761           200.0
         1        73       234          279.61           200.0
         1        73       235         279.211           200.0
         1        74       221         262.657          1000.0
         1        74       236         280.598           200.0
         1        74       237          283.63           200.0
         1        75       219         261.441          1000.0
         1        75       220         262.435          1000.0
         1        75       221         264.443          1000.0
         1        75       238         282.771           200.0
         1        75       246         293.267           200.0
         1        75       247         294.772           200.0
         1        75       248         294.772           200.0
         1        75       249         296.172           200.0
         1        75       250         297.294           200.0
         1        76       218         258.799          1000.0
         1        76       239         284.124           200.0
         1        76       240         284.372           200.0
         1        76       241         286.173           200.0
         1        76       245         290.141           200.0
         1        76       251         296.882           200.0
         1        76       252         299.487           200.0
         1        77       218         255.509          1000.0
         1        77       242         286.305           200.0
         1        77       243         286.305           200.0
         1        77       244         287.582           200.0
         1        77       253         302.575           200.0
         1        77       254         305.609           200.0
         1        77       255         303.095           200.0
         1        77       256         305.401           200.0
         1        78       217         255.509          1000.0
         1        78       257         307.689           200.0
         1        79       217         255.185          1000.0
         1        79       258         309.284           200.0
         1        79       259         309.181           200.0
         1        80       216         251.227          1000.0
         1        80       260         311.055           200.0
         1        81       215         251.387          1000.0
         1        81       260         314.809           200.0
         1        82       212         247.122          1000.0
         1        82       213         247.122          1000.0
         1        82       214         246.812          1000.0
         1        82       261         313.746           200.0
         1        83       211         245.554          1000.0
         1        83       262         315.398           200.0
         1        84       210         243.256          1000.0
         1        84       263         315.396           200.0
         1        85       205         239.901          1000.0
         1        85       206         239.797          1000.0
         1        85       207         239.838          1000.0
         1        85       208         239.838          1000.0
         1        85       209         242.782          1000.0
         1        85       264         321.123           200.0
         1        86       204         236.393          1000.0
         1        86       265         321.627           200.0
         1        87       204         234.347          1000.0
         1        87       266         324.411           200.0
         1        87       267         326.247           200.0
         1        88        47         89.8838           100.0
         1        88       204         234.347          1000.0
         1        88       268         326.247           200.0
         1        88       269         327.561           200.0
         1        89        48          72.395           100.0
         1        89        49         77.9558           100.0
         1        89       203         232.819          1000.0
         1        89       270         329.668           200.0
         1        90        50         77.7998           100.0
         1        90        51         112.471           100.0
         1        90        52         113.607           100.0
         1        90        53         113.607           100.0
         1        90        54         108.568           100.0
         1        90        55         94.0905           100.0
         1        90        56         87.4106           100.0
         1        90       200          230.93          1000.0
         1        90       201         231.893          1000.0
         1        90       202         233.261          1000.0
         1        90       271         331.397           200.0
         1        90       272          333.35           200.0
         1        91        57           84.64           100.0
         1        91       199         229.505          1000.0
         1        91       273         334.947           200.0
         1        92        58         94.4557           100.0
         1        92       193          222.89          1000.0
         1        92       194         227.161          1000.0
         1        92       195         231.248          1000.0
         1        92       196          230.24          1000.0
         1        92       197         226.867          1000.0
         1        92       198         226.867          1000.0
         1        92       274          337.67           200.0
         1        93        59         88.9986           100.0
         1        93       192          222.89          1000.0
         1        93       275         339.161           200.0
         1        94        60         88.1721           100.0
         1        94       189         218.956          1000.0
         1        94       190          220.37          1000.0
         1        94       191         222.232          1000.0
         1        94       192         225.525          1000.0
         1        94       276         343.562           200.0
         1        94       277          345.18           200.0
         1        95        61         90.1125           100.0
         1        95       181         211.614          1000.0
         1        95       182         212.201          1000.0
         1        95       183         212.201          1000.0
         1        95       184         212.438          1000.0
         1        95       185         213.658          1000.0
         1        95       186         214.801          1000.0
         1        95       187          217.63          1000.0
         1        95       188          217.63          1000.0
         1        95       278         344.551           200.0
         1        96        62         92.7611           100.0
         1        96       180          209.79          1000.0
         1        96       279         345.354           200.0
         1        96       280         347.908           200.0
         1        97        63         108.245           100.0
         1        97        64         95.9483           100.0
         1        97        65         93.0446           100.0
         1        97       175         206.203          1000.0
         1        97       176         206.473          1000.0
         1        97       177         208.026          1000.0
         1        97       178         208.026          1000.0
         1        97       179         208.278          1000.0
         1        97       281         350.657           200.0
         1        98        66          95.233           100.0
         1        98        67         96.8634           100.0
         1        98        68         96.8634           100.0
         1        98        69          98.141           100.0
         1        98        70          99.713           100.0
         1        98        71         100.102           100.0
         1        98        72         101.159           100.0
         1        98        73         101.159           100.0
         1        98        74         102.313           100.0
         1        98        75         103.762           100.0
         1        98        76         104.711           100.0
         1        98       170         202.149          1000.0
         1        98       171         203.892          1000.0
         1        98       172         205.487          1000.0
         1        98       173         205.487          1000.0
         1        98       174          206.71          1000.0
         1        98       282         353.159           200.0
         1        98       283         353.159           200.0
         1        99        77         106.945           100.0
         1        99       167         198.018          1000.0
         1        99       168         198.018          1000.0
         1        99       169         198.765          1000.0
         1        99       284         354.469           200.0
         1        99       285          355.54           200.0
         1       100        78         110.091           100.0
         1       100       165         196.162          1000.0
         1       100       166         196.086          1000.0
         1       100       286         358.891           200.0
         1       101        79         107.567           100.0
         1       101        80         107.961           100.0
         1       101       162         192.049          1000.0
         1       101       163         192.049          1000.0
         1       101       164         193.743          1000.0
         1       101       286          361.48           200.0
         1       102        81         110.912           100.0
         1       102        82         112.101           100.0
         1       102       160           190.4          1000.0
         1       102       161         190.866          1000.0
         1       102       286          365.61           200.0
         1       103        83         112.101             1.0
         1       103        84          112.27             1.0
         1       103        85         115.463             1.0
         1       103       102         133.191           100.0
         1       103       103         133.191           100.0
         1       103       104         134.247           100.0
         1       103       105         134.618           100.0
         1       103       106          137.13           100.0
         1       103       107         138.951           100.0
         1       103       159         189.112          1000.0
         1       103       286          365.61           200.0
         1       104        86          116.13             1.0
         1       104        87         119.077             1.0
         1       104        88         119.077             1.0
         1       104        89         120.576             1.0
         1       104        90         121.197             1.0
         1       104        91         123.781             1.0
         1       104        92         124.953             1.0
         1       104        93         124.953             1.0
         1       104        94         125.382             1.0
         1       104        95         124.831             1.0
         1       104        96         125.584             1.0
         1       104        97         128.723             1.0
         1       104        98         128.723             1.0
         1       104        99         129.562             1.0
         1       104       100         131.084           100.0
         1       104       101         130.006           100.0
         1       104       102         129.299           100.0
         1       104       108         135.834           100.0
         1       104       109         139.474           100.0
         1       104       141          172.23           100.0
         1       104       142         173.186           100.0
         1       104       143         173.186           100.0
         1       104       144         174.325          1000.0
         1       104       145         176.632          1000.0
         1       104       146         177.844          1000.0
         1       104       147         179.064          1000.0
         1       104       148         179.064          1000.0
         1       104       152         182.243          1000.0
         1       104       153         182.243          1000.0
         1       104       154         183.674          1000.0
         1       104       155         184.738          1000.0
         1       104       156         184.118          1000.0
         1       104       157         184.315          1000.0
         1       104       158         184.315          1000.0
         1       104       287         365.764           200.0
         1       105       110         140.617           100.0
         1       105       111         144.184           100.0
         1       105       139         170.828           100.0
         1       105       140          170.84           100.0
         1       105       149         179.062          1000.0
         1       105       150         180.412          1000.0
         1       105       151         179.866          1000.0
         1       106       112          145.79           100.0
         1       106       138         170.201           100.0
         1       107       113         143.311           100.0
         1       107       114         144.775           100.0
         1       107       115         145.172           100.0
         1       107       116          145.94           100.0
         1       107       117         146.921           100.0
         1       107       118         146.921           100.0
         1       107       119         148.416           100.0
         1       107       135         167.487           100.0
         1       107       136         167.946           100.0
         1       107       137          169.61           100.0
         1       108       120         151.648           100.0
         1       108       121         154.235           100.0
         1       108       122         156.114           100.0
         1       108       133         165.881           100.0
         1       108       134         166.756           100.0
         1       109       123         154.436           100.0
         1       109       124         157.271           100.0
         1       109       125         158.704           100.0
         1       109       126         160.035           100.0
         1       109       127         161.043           100.0
         1       109       128         161.043           100.0
         1       109       129         160.856           100.0
         1       109       130         160.744           100.0
         1       109       131         161.958           100.0
         1       109       132         162.651           100.0
         1       258       349         652.059           200.0
         1       259       348         687.173           200.0
         1       260       348         668.054           200.0
         1       261       348         684.825           200.0
         1       262       348         661.164           200.0
         1       263       347         661.164           200.0
         1       264       347         663.978           200.0
         1       265       347         667.212           200.0
         1       266       347         667.892           200.0
         1       267       347         670.705           200.0
         1       268       347         670.705           200.0
         1       269       347         684.432           200.0
         1       270       347         686.319           200.0
         1       271       347         679.626           200.0
         1       272       347         694.014           200.0
         1       273       348         694.014           200.0
         1       274       349         684.022           200.0
         1       275       350          703.73           200.0
         1       276       350         694.908           200.0
         1       277       350         700.385           200.0
         1       278       350         700.385           200.0
         1       279       350         702.654           200.0
         1       280       350         702.658           200.0
         1       281       350          709.21           200.0
         1       282       350         712.992           200.0
         1       283       350         712.992           200.0
         1       284       350          706.91           200.0
         1       285       351         706.947           200.0
         1       286       352         710.624           200.0
         1       287       353         714.611           200.0
         1       287       354         714.114           200.0
         1       287       355         715.834           200.0
         1       287       356         726.349           200.0
         1       288       357         727.115           200.0
         1       289       358         727.729           200.0
         1       290       358         738.019           200.0
         1       291       359         741.184           200.0
         1       292       359         740.143           200.0
         1       293       360         764.257           200.0
         1       294       361         747.553           200.0
         1       295       362         744.168           200.0
         1       296       363         748.535           200.0
         1       297       364         746.485           200.0
         1       298       365         741.162           200.0
         1       299       366         744.663           200.0
         1       300       366         746.284           200.0
         1       301       366          750.02           200.0
         1       302       367         837.416           200.0
         1       303       367         837.416           200.0
         1       304       367         755.343           200.0
         1       305       367         758.022           200.0
         1       306       367         760.731           200.0
         1       307       367         762.052           200.0
         1       308       367         762.052           200.0
         1       309       368         764.962           200.0
         1       310       368         768.098           200.0
         1       311       368         770.504           200.0
         1       312       368         775.002           200.0
         1       313       368         775.002           200.0
         1       314       369         773.273           200.0
         1       315       370         776.364           200.0
         1       315       371         782.621           200.0
         1       316       372         787.873           200.0
         1       317       372         785.034           200.0
         1       318       373         785.034           200.0
         1       319       374         788.168           200.0
         1       320       374         790.353           200.0
         1       321       374         792.775           200.0
         1       322       375         793.473           200.0
         1       323       376         794.304           200.0
         1       324       377         796.955           200.0
         1       325       378         800.689           200.0
         1       326       379         805.514           200.0
         1       327       380         813.353           200.0
         1       327       381         821.234           200.0
         1       328       382         831.047           200.0
         1       329       383         823.855           200.0
         1       330       383         829.111           200.0
         1       331       384         824.177           200.0
         1       332       385         833.652           200.0
         1       333       386         851.919           200.0
         1       334       386         830.903           200.0
         1       335       386         829.712           200.0
         1       336       387         871.606           200.0
         1       337       387         876.811           200.0
         1       338       387         876.811           200.0
         1       339       387         861.765           200.0
         1       340       388          844.71           200.0
         1       341       388         851.875           200.0
         1       342       389         859.695           200.0
         1       343       389         859.695           200.0
         1       344       390         858.786           200.0
         1       345       390         854.783           200.0
         1       346       391         858.858           200.0
         1       347       392          878.67           200.0
         1       348       393          878.67           200.0
         1       348       394         915.857           200.0
         1       349       395         888.425           200.0
         1       349       396          935.19           200.0
         1       349       397         920.427           200.0
         1       350       398         883.941           200.0
         1       350       399         892.465           200.0
         1       351       400         901.367           200.0
         1       353       400         905.745          1000.0
         1       354       400         921.718          1000.0
         1       355       400         910.024          1000.0
         1       356       401         902.429          1000.0
         1       357       401         900.608          1000.0
         1       358       401         900.608          1000.0
         1       359       400         901.945          1000.0
         1       360       400         927.534          1000.0
         1       361       401         917.576          1000.0
         1       362       402          922.02          1000.0
         1       363       403          922.02          1000.0
         1       364       404         919.109          1000.0
         1       364       405         934.305          1000.0
         1       364       406         955.836          1000.0
         1       364       407         960.011          1000.0
         1       365       408         938.728          1000.0
         1       366       409         941.318          1000.0
         1       366       410         939.937          1000.0
         1       366       411         951.035          1000.0
         1       367       412          942.66          1000.0
         1       368       413          942.66          1000.0
         1       368       414         946.748          1000.0
         1       368       415         948.261          1000.0
         1       369       416         950.017          1000.0
         1       370       417         953.785          1000.0
         1       371       417         955.002          1000.0
         1       372       418         954.019          1000.0
         1       373       418         954.019          1000.0
         1       374       418         955.009          1000.0
         1       375       419         954.474          1000.0
         1       376       419         960.075          1000.0
         1       377       420         961.021          1000.0
         1       378       420         961.021          1000.0
         1       379       421         969.761          1000.0
         1       380       422         967.937          1000.0
         1       380       423         967.937          1000.0
         1       381       424         970.952          1000.0
         1       382       425         976.362          1000.0
         1       383       426         1004.47          1000.0
         1       384       427         1010.79          1000.0
         1       385       428          980.05          1000.0
         1       386       429         981.142          1000.0
         1       387       430          990.62          1000.0
         1       387       431         1007.99          1000.0
         1       388       432         1025.65          1000.0
         1       389       433          1012.5          1000.0
         1       390       433         1000.15          1000.0
         1       390       434         1010.92          1000.0
         1       391       435          1003.2          1000.0
         1       392       436         1000.61          1000.0
         1       392       437         1003.74          1000.0
         1       392       438         1003.74          1000.0
         1       393       439         1004.67          1000.0
         1       394       440         1007.19          1000.0
         1       395       440         1005.39          1000.0
         1       396       441         1009.89          1000.0
         1       397       441         1011.85          1000.0
         1       398       441         1011.85          1000.0
         1       399       442          1016.5          1000.0
         1       400       443         1017.46          1000.0
         1       401       444          1016.0          1000.0
         1       402       445         1020.91          1000.0
         1       403       445         1020.91          1000.0
         1       404       445         1019.88          1000.0
         1       405       446         1027.62          1000.0
         1       406       447         1029.44          1000.0
         1       407       448         1029.27          1000.0
         1       408       448         1029.27          1000.0
         1       409       449         1032.75          1000.0
         1       410       450         1041.24          1000.0
         1       410       451          1039.9          1000.0
         1       411       452         1043.77          1000.0
         1       412       453         1044.18          1000.0
         1       413       453         1044.18          1000.0
         1       414       453         1043.61          1000.0
         1       415       453         1139.34          1000.0
         1       416       453         1136.41          1000.0
         1       417       453         1109.24          1000.0
         1       418       454         1060.55          1000.0
         1       419       454         1053.55          1000.0
         1       420       454         1069.06          1000.0
         1       421       455         1060.87          1000.0
         1       422       455          1062.6          1000.0
         1       423       456         1071.43          1000.0
         1       424       457         1074.05          1000.0
         1       425       458         1069.81          1000.0
         1       426       458         1071.87          1000.0
         1       427       458         1074.24          1000.0
         1       428       458         1074.24          1000.0
         1       429       458         1075.72          1000.0
         1       430       457         1077.42          1000.0
         1       431       457         1079.27          1000.0
         1       432       457          1082.8          1000.0
         1       433       457          1082.8          1000.0
         1       434       457         1084.41          1000.0
         1       435       457         1085.77          1000.0
         1       436       458         1089.03          1000.0
         1       437       458         1092.83          1000.0
         1       438       458         1092.83          1000.0
         1       439       459         1096.81          1000.0
         1       440       459         1096.97          1000.0
         1       441       459          1100.1          1000.0
         1       442       460         1106.36          1000.0
         1       443       460         1106.36          1000.0
         1       443       461         1116.76          1000.0
         1       444       462         1124.73          1000.0
         1       445       463         1116.28          1000.0
         1       446       464         1129.36          1000.0
         1       447       465         1138.45          1000.0
         1       448       466         1149.35          1000.0
         1       449       466         1150.74          1000.0
         1       450       467         1131.06          1000.0
         1       451       468         1132.09          1000.0
         1       452       469         1137.34          1000.0
         1       453       470          1136.7          1000.0
         1       454       471         1138.91          1000.0
         1       455       472         1164.09          1000.0
         1       456       473         1146.86          1000.0