# OC package for  MODFLOW-NWT, generated by Flopy.
HEAD PRINT FORMAT   0
HEAD SAVE UNIT    51
DRAWDOWN PRINT FORMAT   0
COMPACT BUDGET AUX

period 1 step 10 
  save head

period 2 step 10 
  save head

period 3 step 10 
  save head

period 4 step 10 
  save head

period 5 step 10 
  save head

period 6 step 10 
  save head

period 7 step 10 
  save head

period 8 step 10 
  save head

period 9 step 10 
  save head

period 10 step 10 
  save head

period 11 step 10 
  save head

period 12 step 10 
  save head

period 13 step 10 
  save head

period 14 step 10 
  save head

period 15 step 10 
  save head

period 16 step 10 
  save head

period 17 step 10 
  save head

period 18 step 10 
  save head

period 19 step 10 
  save head

period 20 step 10 
  save head

period 21 step 10 
  save head

period 22 step 10 
  save head

period 23 step 10 
  save head

period 24 step 10 
  save head

period 25 step 10 
  save head

period 26 step 10 
  save head

period 27 step 10 
  save head

period 28 step 10 
  save head

period 29 step 10 
  save head

period 30 step 10 
  save head

period 31 step 10 
  save head

period 32 step 10 
  save head

period 33 step 10 
  save head

period 34 step 10 
  save head

period 35 step 10 
  save head

period 36 step 10 
  save head

period 37 step 10 
  save head

period 38 step 10 
  save head

period 39 step 10 
  save head

period 40 step 10 
  save head

period 41 step 10 
  save head

period 42 step 10 
  save head

period 43 step 10 
  save head

period 44 step 10 
  save head

period 45 step 10 
  save head

period 46 step 10 
  save head

period 47 step 10 
  save head

period 48 step 10 
  save head

period 49 step 10 
  save head

period 50 step 10 
  save head

period 51 step 10 
  save head

period 52 step 10 
  save head

period 53 step 10 
  save head

period 54 step 10 
  save head

period 55 step 10 
  save head

period 56 step 10 
  save head

period 57 step 10 
  save head

period 58 step 10 
  save head

period 59 step 10 
  save head

period 60 step 10 
  save head

period 61 step 10 
  save head

period 62 step 10 
  save head

period 63 step 10 
  save head

period 64 step 10 
  save head

period 65 step 10 
  save head

period 66 step 10 
  save head

period 67 step 10 
  save head

period 68 step 10 
  save head

period 69 step 10 
  save head

period 70 step 10 
  save head

period 71 step 10 
  save head

period 72 step 10 
  save head

period 73 step 10 
  save head

period 74 step 10 
  save head

period 75 step 10 
  save head

period 76 step 10 
  save head

period 77 step 10 
  save head

period 78 step 10 
  save head

period 79 step 10 
  save head

period 80 step 10 
  save head

period 81 step 10 
  save head

period 82 step 10 
  save head

period 83 step 10 
  save head

period 84 step 10 
  save head

period 85 step 10 
  save head

period 86 step 10 
  save head

period 87 step 10 
  save head

period 88 step 10 
  save head

period 89 step 10 
  save head

period 90 step 10 
  save head

period 91 step 10 
  save head

period 92 step 10 
  save head

period 93 step 10 
  save head

period 94 step 10 
  save head

period 95 step 10 
  save head

period 96 step 10 
  save head

period 97 step 10 
  save head

period 98 step 10 
  save head

period 99 step 10 
  save head

period 100 step 10 
  save head

