# WEL package for  MODFLOW-NWT, generated by Flopy.
       188         0
       188         0 # stress period 1
         1        69       225             0.0
         1        71       224         -6048.0
         1        74       220         -6134.4
         1        73       220         -5788.8
         1        71       223         -6220.8
         1        71       223         -7344.0
         1        72       223         -6393.6
         1        92       173         -6652.8
         1        94       174         -5875.2
         1        93       175         -5875.2
         1       203       328         -5875.2
         1       438       460      -1198.3671
         1       436       461      -1198.3671
         1       410       454      -1198.3671
         1       433       460      -1198.3671
         1       431       462      -1198.3671
         1       417       459      -1198.3671
         1       418       458      -1198.3671
         1       414       455      -1198.3671
         1       443       464      -1198.3671
         1       379       425      -1198.3671
         1       362       405      -1198.3671
         1       361       405      -1198.3671
         1       362       406      -1198.3671
         1       363       408      -1198.3671
         1       364       410      -1198.3671
         1       369       418      -1198.3671
         1       367       417      -1198.3671
         1       365       415      -1198.3671
         1       402       447      -1198.3671
         1       400       446      -1198.3671
         1       392       444      -1198.3671
         1       391       441      -1198.3671
         1       403       448      -1198.3671
         1       405       447      -1198.3671
         1       362       410      -1198.3671
         1       362       411      -1198.3671
         1       363       412      -1198.3671
         1       375       421      -1198.3671
         1       383       430      -1198.3671
         1       397       445      -1198.3671
         1       360       403      -1198.3671
         1       350       401      -1198.3671
         1       346       393      -1268.3239
         1       333       387      -1268.3239
         1       328       384      -1268.3239
         1       326       383      -1268.3239
         1       323       378      -1268.3239
         1       321       378      -1268.3239
         1       322       376      -1268.3239
         1       316       374      -1268.3239
         1       311       371      -1268.3239
         1       307       369      -1268.3239
         1       305       368      -1268.3239
         1       303       368      -1268.3239
         1       300       369      -1268.3239
         1       293       364      -1268.3239
         1       292       362      -1268.3239
         1       278       350      -1268.3239
         1       274       351      -1268.3239
         1       273       350      -1268.3239
         1       271       350      -1268.3239
         1       267       348      -1268.3239
         1       263       348      -1268.3239
         1       263       348      -1268.3239
         1       248       347      -1268.3239
         1       243       342      -1268.3239
         1       242       339      -1268.3239
         1       238       341      -1268.3239
         1       233       340      -1268.3239
         1       232       340      -1268.3239
         1       229       341      -1268.3239
         1       227       341      -1268.3239
         1       219       342      -1268.3239
         1       219       336      -1268.3239
         1       199       329      -1268.3239
         1       191       332            -0.0
         1       190       332            -0.0
         1       130       310            -0.0
         1       123       305            -0.0
         1       104       289            -0.0
         1        96       287      -1901.8057
         1        95       284      -1901.8057
         1        95       280      -1901.8057
         1        93       276      -1901.8057
         1        94       275      -1901.8057
         1        90       277      -1901.8057
         1        90       273      -1901.8057
         1        86       271      -1901.8057
         1        85       270      -1901.8057
         1        84       265      -1901.8057
         1        85       265      -1901.8057
         1        84       264      -1901.8057
         1        79       263      -1901.8057
         1        79       263      -1901.8057
         1        76       262      -1901.8057
         1        73       257      -1901.8057
         1        74       255      -1901.8057
         1        71       255      -1901.8057
         1        66       253      -1901.8057
         1        68       252      -1901.8057
         1        69       250      -1901.8057
         1        65       248      -1901.8057
         1        68       248      -1901.8057
         1        69       247      -1901.8057
         1        73       247      -1901.8057
         1        64       246      -1901.8057
         1        69       245      -1901.8057
         1        72       245      -1901.8057
         1        69       241      -1901.8057
         1        73       238      -1901.8057
         1        70       238      -1901.8057
         1        76       263      -1901.8057
         1        66       232      -1041.4027
         1        69       229      -1041.4027
         1        71       228      -1041.4027
         1        69       227      -1041.4027
         1        72       219      -1041.4027
         1        72       218      -1041.4027
         1        72       218      -1041.4027
         1        73       217      -1041.4027
         1        77       219      -1041.4027
         1        78       219      -1041.4027
         1        83       213      -1041.4027
         1        77       213      -1041.4027
         1        81       211      -1041.4027
         1        81       210      -1041.4027
         1        81       210      -1041.4027
         1        82       208      -1041.4027
         1        80       205      -1041.4027
         1        86       202      -1041.4027
         1        84       200      -1041.4027
         1        89       200      -1041.4027
         1        89       199      -1041.4027
         1        88       199      -1041.4027
         1        86       199      -1041.4027
         1        85       199      -1041.4027
         1        82       197      -1041.4027
         1        86       197      -1041.4027
         1        88       198      -1041.4027
         1        90       192      -1041.4027
         1        89       191      -1041.4027
         1        84       192      -1041.4027
         1        91       189      -1041.4027
         1        92       185      -1041.4027
         1        87       183      -1041.4027
         1        92       182      -1041.4027
         1        90       182      -1041.4027
         1        88       179      -1041.4027
         1        89       176      -1041.4027
         1        92       172      -1041.4027
         1        93       164      -1041.4027
         1        94       162      -1041.4027
         1       103       156      -1041.4027
         1       103       156      -1041.4027
         1        96       154      -1041.4027
         1        97       153      -1041.4027
         1       122       139      -1041.4027
         1        92        77      -1041.4027
         1        94        77      -1041.4027
         1        94        73      -1041.4027
         1        97       152      -1041.4027
         1       118       337       -666.6666
         1       133       319         -2678.4
         1       131       320      -3951.0332
         1       133       321       -2955.933
         1       161       329         -2140.7
         1       178       330       -551.0334
         1       163       330      -1122.2997
         1       131       320      -2472.7664
         1       129       315      -3936.7002
         1       162       329       -1958.567
         1       131       311      -826.10004
         1       221       340      -1993.9996
         1       220       340      -1033.9998
         1       221       340       -667.6666
         1       137       322       -2081.967
         1       137       321      -1406.5669
         1       185       329      -2012.0892
         1       183       329       -1472.777
         1       175       329       -585.3333
         1        79       243      -1490.2333
         1        77       245      -2413.7334
         1       199       329      -1617.3337
         1       198       330      -2513.9998
         1       140       328       -972.1218
         1       143       327      -863.57166
         1       139       327      -1330.9739
       188         0 # stress period 2
         1        69       225           -86.4
         1        71       224         -6048.0
         1        74       220         -6134.4
         1        73       220         -5788.8
         1        71       223         -6220.8
         1        71       223         -7344.0
         1        72       223         -6393.6
         1        92       173         -6652.8
         1        94       174         -5875.2
         1        93       175         -5875.2
         1       203       328         -5875.2
         1       438       460      -2792.6926
         1       436       461      -2792.6926
         1       410       454      -2792.6926
         1       433       460      -2792.6926
         1       431       462      -2792.6926
         1       417       459      -2792.6926
         1       418       458      -2792.6926
         1       414       455      -2792.6926
         1       443       464      -2792.6926
         1       379       425      -2792.6926
         1       362       405      -2792.6926
         1       361       405      -2792.6926
         1       362       406      -2792.6926
         1       363       408      -2792.6926
         1       364       410      -2792.6926
         1       369       418      -2792.6926
         1       367       417      -2792.6926
         1       365       415      -2792.6926
         1       402       447      -2792.6926
         1       400       446      -2792.6926
         1       392       444      -2792.6926
         1       391       441      -2792.6926
         1       403       448      -2792.6926
         1       405       447      -2792.6926
         1       362       410      -2792.6926
         1       362       411      -2792.6926
         1       363       412      -2792.6926
         1       375       421      -2792.6926
         1       383       430      -2792.6926
         1       397       445      -2792.6926
         1       360       403      -2792.6926
         1       350       401      -2792.6926
         1       346       393      -3603.8716
         1       333       387      -3603.8716
         1       328       384      -3603.8716
         1       326       383      -3603.8716
         1       323       378      -3603.8716
         1       321       378      -3603.8716
         1       322       376      -3603.8716
         1       316       374      -3603.8716
         1       311       371      -3603.8716
         1       307       369      -3603.8716
         1       305       368      -3603.8716
         1       303       368      -3603.8716
         1       300       369      -3603.8716
         1       293       364      -3603.8716
         1       292       362      -3603.8716
         1       278       350      -3603.8716
         1       274       351      -3603.8716
         1       273       350      -3603.8716
         1       271       350      -3603.8716
         1       267       348      -3603.8716
         1       263       348      -3603.8716
         1       263       348      -3603.8716
         1       248       347      -3603.8716
         1       243       342      -3603.8716
         1       242       339      -3603.8716
         1       238       341      -3603.8716
         1       233       340      -3603.8716
         1       232       340      -3603.8716
         1       229       341      -3603.8716
         1       227       341      -3603.8716
         1       219       342      -3603.8716
         1       219       336      -3603.8716
         1       199       329      -3603.8716
         1       191       332      -4829.1743
         1       190       332      -4829.1743
         1       130       310      -4829.1743
         1       123       305      -4829.1743
         1       104       289      -4829.1743
         1        96       287       -4290.422
         1        95       284       -4290.422
         1        95       280       -4290.422
         1        93       276       -4290.422
         1        94       275       -4290.422
         1        90       277       -4290.422
         1        90       273       -4290.422
         1        86       271       -4290.422
         1        85       270       -4290.422
         1        84       265       -4290.422
         1        85       265       -4290.422
         1        84       264       -4290.422
         1        79       263       -4290.422
         1        79       263       -4290.422
         1        76       262       -4290.422
         1        73       257       -4290.422
         1        74       255       -4290.422
         1        71       255       -4290.422
         1        66       253       -4290.422
         1        68       252       -4290.422
         1        69       250       -4290.422
         1        65       248       -4290.422
         1        68       248       -4290.422
         1        69       247       -4290.422
         1        73       247       -4290.422
         1        64       246       -4290.422
         1        69       245       -4290.422
         1        72       245       -4290.422
         1        69       241       -4290.422
         1        73       238       -4290.422
         1        70       238       -4290.422
         1        76       263       -4290.422
         1        66       232      -2309.5247
         1        69       229      -2309.5247
         1        71       228      -2309.5247
         1        69       227      -2309.5247
         1        72       219      -2309.5247
         1        72       218      -2309.5247
         1        72       218      -2309.5247
         1        73       217      -2309.5247
         1        77       219      -2309.5247
         1        78       219      -2309.5247
         1        83       213      -2309.5247
         1        77       213      -2309.5247
         1        81       211      -2309.5247
         1        81       210      -2309.5247
         1        81       210      -2309.5247
         1        82       208      -2309.5247
         1        80       205      -2309.5247
         1        86       202      -2309.5247
         1        84       200      -2309.5247
         1        89       200      -2309.5247
         1        89       199      -2309.5247
         1        88       199      -2309.5247
         1        86       199      -2309.5247
         1        85       199      -2309.5247
         1        82       197      -2309.5247
         1        86       197      -2309.5247
         1        88       198      -2309.5247
         1        90       192      -2309.5247
         1        89       191      -2309.5247
         1        84       192      -2309.5247
         1        91       189      -2309.5247
         1        92       185      -2309.5247
         1        87       183      -2309.5247
         1        92       182      -2309.5247
         1        90       182      -2309.5247
         1        88       179      -2309.5247
         1        89       176      -2309.5247
         1        92       172      -2309.5247
         1        93       164      -2309.5247
         1        94       162      -2309.5247
         1       103       156      -2309.5247
         1       103       156      -2309.5247
         1        96       154      -2309.5247
         1        97       153      -2309.5247
         1       122       139      -2309.5247
         1        92        77      -2309.5247
         1        94        77      -2309.5247
         1        94        73      -2309.5247
         1        97       152      -2309.5247
         1       118       337       -666.6666
         1       133       319         -2678.4
         1       131       320      -3951.0332
         1       133       321       -2955.933
         1       161       329         -2140.7
         1       178       330       -551.0334
         1       163       330      -1122.2997
         1       131       320      -2472.7664
         1       129       315      -3936.7002
         1       162       329       -1958.567
         1       131       311      -826.10004
         1       221       340      -1993.9996
         1       220       340      -1033.9998
         1       221       340       -667.6666
         1       137       322       -2081.967
         1       137       321      -1406.5669
         1       185       329      -2012.0892
         1       183       329       -1472.777
         1       175       329       -585.3333
         1        79       243      -1490.2333
         1        77       245      -2413.7334
         1       199       329      -1617.3337
         1       198       330      -2513.9998
         1       140       328       -972.1218
         1       143       327      -863.57166
         1       139       327      -1330.9739
       188         0 # stress period 3
         1        69       225          -172.8
         1        71       224         -6048.0
         1        74       220         -6134.4
         1        73       220         -5788.8
         1        71       223         -6220.8
         1        71       223         -7344.0
         1        72       223         -6393.6
         1        92       173         -6652.8
         1        94       174         -5875.2
         1        93       175         -5875.2
         1       203       328         -5875.2
         1       438       460      -2561.1785
         1       436       461      -2561.1785
         1       410       454      -2561.1785
         1       433       460      -2561.1785
         1       431       462      -2561.1785
         1       417       459      -2561.1785
         1       418       458      -2561.1785
         1       414       455      -2561.1785
         1       443       464      -2561.1785
         1       379       425      -2561.1785
         1       362       405      -2561.1785
         1       361       405      -2561.1785
         1       362       406      -2561.1785
         1       363       408      -2561.1785
         1       364       410      -2561.1785
         1       369       418      -2561.1785
         1       367       417      -2561.1785
         1       365       415      -2561.1785
         1       402       447      -2561.1785
         1       400       446      -2561.1785
         1       392       444      -2561.1785
         1       391       441      -2561.1785
         1       403       448      -2561.1785
         1       405       447      -2561.1785
         1       362       410      -2561.1785
         1       362       411      -2561.1785
         1       363       412      -2561.1785
         1       375       421      -2561.1785
         1       383       430      -2561.1785
         1       397       445      -2561.1785
         1       360       403      -2561.1785
         1       350       401      -2561.1785
         1       346       393      -3648.2854
         1       333       387      -3648.2854
         1       328       384      -3648.2854
         1       326       383      -3648.2854
         1       323       378      -3648.2854
         1       321       378      -3648.2854
         1       322       376      -3648.2854
         1       316       374      -3648.2854
         1       311       371      -3648.2854
         1       307       369      -3648.2854
         1       305       368      -3648.2854
         1       303       368      -3648.2854
         1       300       369      -3648.2854
         1       293       364      -3648.2854
         1       292       362      -3648.2854
         1       278       350      -3648.2854
         1       274       351      -3648.2854
         1       273       350      -3648.2854
         1       271       350      -3648.2854
         1       267       348      -3648.2854
         1       263       348      -3648.2854
         1       263       348      -3648.2854
         1       248       347      -3648.2854
         1       243       342      -3648.2854
         1       242       339      -3648.2854
         1       238       341      -3648.2854
         1       233       340      -3648.2854
         1       232       340      -3648.2854
         1       229       341      -3648.2854
         1       227       341      -3648.2854
         1       219       342      -3648.2854
         1       219       336      -3648.2854
         1       199       329      -3648.2854
         1       191       332       -4531.535
         1       190       332       -4531.535
         1       130       310       -4531.535
         1       123       305       -4531.535
         1       104       289       -4531.535
         1        96       287       -3788.466
         1        95       284       -3788.466
         1        95       280       -3788.466
         1        93       276       -3788.466
         1        94       275       -3788.466
         1        90       277       -3788.466
         1        90       273       -3788.466
         1        86       271       -3788.466
         1        85       270       -3788.466
         1        84       265       -3788.466
         1        85       265       -3788.466
         1        84       264       -3788.466
         1        79       263       -3788.466
         1        79       263       -3788.466
         1        76       262       -3788.466
         1        73       257       -3788.466
         1        74       255       -3788.466
         1        71       255       -3788.466
         1        66       253       -3788.466
         1        68       252       -3788.466
         1        69       250       -3788.466
         1        65       248       -3788.466
         1        68       248       -3788.466
         1        69       247       -3788.466
         1        73       247       -3788.466
         1        64       246       -3788.466
         1        69       245       -3788.466
         1        72       245       -3788.466
         1        69       241       -3788.466
         1        73       238       -3788.466
         1        70       238       -3788.466
         1        76       263       -3788.466
         1        66       232      -2343.3914
         1        69       229      -2343.3914
         1        71       228      -2343.3914
         1        69       227      -2343.3914
         1        72       219      -2343.3914
         1        72       218      -2343.3914
         1        72       218      -2343.3914
         1        73       217      -2343.3914
         1        77       219      -2343.3914
         1        78       219      -2343.3914
         1        83       213      -2343.3914
         1        77       213      -2343.3914
         1        81       211      -2343.3914
         1        81       210      -2343.3914
         1        81       210      -2343.3914
         1        82       208      -2343.3914
         1        80       205      -2343.3914
         1        86       202      -2343.3914
         1        84       200      -2343.3914
         1        89       200      -2343.3914
         1        89       199      -2343.3914
         1        88       199      -2343.3914
         1        86       199      -2343.3914
         1        85       199      -2343.3914
         1        82       197      -2343.3914
         1        86       197      -2343.3914
         1        88       198      -2343.3914
         1        90       192      -2343.3914
         1        89       191      -2343.3914
         1        84       192      -2343.3914
         1        91       189      -2343.3914
         1        92       185      -2343.3914
         1        87       183      -2343.3914
         1        92       182      -2343.3914
         1        90       182      -2343.3914
         1        88       179      -2343.3914
         1        89       176      -2343.3914
         1        92       172      -2343.3914
         1        93       164      -2343.3914
         1        94       162      -2343.3914
         1       103       156      -2343.3914
         1       103       156      -2343.3914
         1        96       154      -2343.3914
         1        97       153      -2343.3914
         1       122       139      -2343.3914
         1        92        77      -2343.3914
         1        94        77      -2343.3914
         1        94        73      -2343.3914
         1        97       152      -2343.3914
         1       118       337       -666.6666
         1       133       319         -2678.4
         1       131       320      -3951.0332
         1       133       321       -2955.933
         1       161       329         -2140.7
         1       178       330       -551.0334
         1       163       330      -1122.2997
         1       131       320      -2472.7664
         1       129       315      -3936.7002
         1       162       329       -1958.567
         1       131       311      -826.10004
         1       221       340      -1993.9996
         1       220       340      -1033.9998
         1       221       340       -667.6666
         1       137       322       -2081.967
         1       137       321      -1406.5669
         1       185       329      -2012.0892
         1       183       329       -1472.777
         1       175       329       -585.3333
         1        79       243      -1490.2333
         1        77       245      -2413.7334
         1       199       329      -1617.3337
         1       198       330      -2513.9998
         1       140       328       -972.1218
         1       143       327      -863.57166
         1       139       327      -1330.9739
       188         0 # stress period 4
         1        69       225          -259.2
         1        71       224         -6048.0
         1        74       220         -6134.4
         1        73       220         -5788.8
         1        71       223         -6220.8
         1        71       223         -7344.0
         1        72       223         -6393.6
         1        92       173         -6652.8
         1        94       174         -5875.2
         1        93       175         -5875.2
         1       203       328         -5875.2
         1       438       460            -0.0
         1       436       461            -0.0
         1       410       454            -0.0
         1       433       460            -0.0
         1       431       462            -0.0
         1       417       459            -0.0
         1       418       458            -0.0
         1       414       455            -0.0
         1       443       464            -0.0
         1       379       425            -0.0
         1       362       405            -0.0
         1       361       405            -0.0
         1       362       406            -0.0
         1       363       408            -0.0
         1       364       410            -0.0
         1       369       418            -0.0
         1       367       417            -0.0
         1       365       415            -0.0
         1       402       447            -0.0
         1       400       446            -0.0
         1       392       444            -0.0
         1       391       441            -0.0
         1       403       448            -0.0
         1       405       447            -0.0
         1       362       410            -0.0
         1       362       411            -0.0
         1       363       412            -0.0
         1       375       421            -0.0
         1       383       430            -0.0
         1       397       445            -0.0
         1       360       403            -0.0
         1       350       401            -0.0
         1       346       393       -49.87741
         1       333       387       -49.87741
         1       328       384       -49.87741
         1       326       383       -49.87741
         1       323       378       -49.87741
         1       321       378       -49.87741
         1       322       376       -49.87741
         1       316       374       -49.87741
         1       311       371       -49.87741
         1       307       369       -49.87741
         1       305       368       -49.87741
         1       303       368       -49.87741
         1       300       369       -49.87741
         1       293       364       -49.87741
         1       292       362       -49.87741
         1       278       350       -49.87741
         1       274       351       -49.87741
         1       273       350       -49.87741
         1       271       350       -49.87741
         1       267       348       -49.87741
         1       263       348       -49.87741
         1       263       348       -49.87741
         1       248       347       -49.87741
         1       243       342       -49.87741
         1       242       339       -49.87741
         1       238       341       -49.87741