# EVT package for  MODFLOW-NWT, generated by Flopy.
         3         0
         1         1         1         1 # Evapotranspiration  dataset 5 for stress period 1
INTERNAL               1 (510E15.6) -1 #surf1                         
   1.229930E+02   1.156820E+02   1.156820E+02   1.086460E+02   9.822470E+01   8.874080E+01   8.291060E+01   8.291060E+01   7.785670E+01   8.002490E+01   9.048620E+01   9.203080E+01   9.203080E+01   9.235040E+01   9.547530E+01   8.805480E+01   8.636910E+01   8.636910E+01   8.232110E+01   8.551940E+01   8.537560E+01   8.230050E+01   8.230050E+01   8.646960E+01   8.978370E+01   9.837430E+01   1.057460E+02   1.057460E+02   1.087790E+02   1.124310E+02   1.133910E+02   1.147790E+02   1.147790E+02   1.156570E+02   1.172150E+02   1.193990E+02   1.204770E+02   1.204770E+02   1.180000E+02   1.181610E+02   1.182130E+02   1.160340E+02   1.160340E+02   1.176780E+02   1.172930E+02   1.152060E+02   1.145110E+02   1.145110E+02   1.153170E+02   1.148130E+02   1.141560E+02   1.127910E+02   1.127910E+02   1.121540E+02   1.134100E+02   1.160690E+02   1.187440E+02   1.187440E+02   1.212610E+02   1.243890E+02   1.272890E+02   1.314160E+02   1.314160E+02   1.425660E+02   1.524880E+02   1.488770E+02   1.489100E+02   1.489100E+02   1.557380E+02   1.576540E+02   1.685850E+02   1.825480E+02   1.825480E+02   1.866650E+02   1.999400E+02   2.182880E+02   2.205260E+02   2.205260E+02   2.160460E+02   2.195120E+02   2.299790E+02   2.464350E+02   2.464350E+02   2.639500E+02   2.835140E+02   3.019920E+02   3.190220E+02   3.190220E+02   3.351090E+02   3.515700E+02   3.633560E+02   3.659090E+02   3.659090E+02   3.757510E+02   3.862800E+02   4.000820E+02   4.206630E+02   4.206630E+02   4.381010E+02   4.518510E+02   4.692660E+02   4.944980E+02   4.944980E+02   5.246350E+02   5.475550E+02   5.710910E+02   5.998710E+02   5.998710E+02   6.318890E+02   6.463740E+02   6.221790E+02   6.140460E+02   6.140460E+02   5.796230E+02   5.270490E+02   4.990820E+02   4.728340E+02   4.728340E+02   4.637330E+02   4.547170E+02   4.509340E+02   4.571830E+02   4.571830E+02   4.670290E+02   4.821840E+02   4.943430E+02   4.998540E+02   4.998540E+02   5.223520E+02   5.527530E+02   5.710410E+02   5.645730E+02   5.645730E+02   5.635760E+02   5.625730E+02   5.837310E+02   5.817510E+02   5.817510E+02   5.843330E+02   6.164480E+02   6.441900E+02   6.303940E+02   6.303940E+02   6.233750E+02   6.668360E+02   7.028470E+02   7.093310E+02   7.093310E+02   6.811930E+02   6.356740E+02   6.226620E+02   6.486620E+02   6.486620E+02   6.877530E+02   7.389120E+02   8.005770E+02   8.667420E+02   8.667420E+02   8.913490E+02   9.137990E+02   9.419360E+02   8.667250E+02   8.667250E+02   7.810480E+02   7.307540E+02   7.250420E+02   6.909350E+02   6.909350E+02   6.483230E+02   7.034130E+02   7.484280E+02   7.655640E+02   7.655640E+02   7.555010E+02   7.732270E+02   7.380230E+02   6.921150E+02   6.921150E+02   6.881210E+02   6.851410E+02   6.525410E+02   6.264360E+02   6.264360E+02   6.239340E+02   5.827310E+02   5.573610E+02   5.549640E+02   5.549640E+02   5.781160E+02   5.698420E+02   6.053140E+02   6.114540E+02   6.114540E+02   6.215590E+02   5.979870E+02   5.783950E+02   5.812980E+02   5.812980E+02   5.862160E+02   6.084950E+02   6.530850E+02   6.899020E+02   6.899020E+02   6.928900E+02   6.969270E+02   7.253700E+02   6.936190E+02   6.936190E+02   6.941420E+02   7.136570E+02   7.100610E+02   7.426840E+02   7.426840E+02   7.414340E+02   7.324430E+02   7.290840E+02   7.370020E+02   7.370020E+02   7.460620E+02   7.483820E+02   7.592210E+02   7.732010E+02   7.732010E+02   7.916120E+02   8.139630E+02   8.482530E+02   8.848100E+02   8.848100E+02   9.309870E+02   9.650200E+02   9.482650E+02   9.311680E+02   9.311680E+02   9.461430E+02   9.910390E+02   1.052970E+03   1.066900E+03   1.066900E+03   1.000550E+03   9.505890E+02   9.144920E+02   8.942880E+02   8.942880E+02   8.767740E+02   8.700450E+02   8.867540E+02   9.114230E+02   9.114230E+02   9.078010E+02   8.920180E+02   8.712900E+02   8.660720E+02   8.660720E+02   8.880790E+02   9.443880E+02   9.710890E+02   9.283190E+02   9.283190E+02   9.157670E+02   9.287880E+02   9.508110E+02   9.633660E+02   9.633660E+02   9.638070E+02   9.474100E+02   9.171200E+02   9.007530E+02   9.007530E+02   8.981770E+02   9.346880E+02   9.536160E+02   9.657750E+02   9.657750E+02   9.986680E+02   1.023980E+03   1.010410E+03   1.000750E+03   1.000750E+03   1.010360E+03   1.025790E+03   1.057300E+03   1.103940E+03   1.103940E+03   1.141860E+03   1.125340E+03   1.098670E+03   1.093450E+03   1.093450E+03   1.101620E+03   1.103150E+03   1.102870E+03   1.097180E+03   1.097180E+03   1.096920E+03   1.085870E+03   1.081800E+03   1.082600E+03   1.082600E+03   1.086800E+03   1.097150E+03   1.115320E+03   1.145230E+03   1.145230E+03   1.175690E+03   1.217120E+03   1.276220E+03   1.316710E+03   1.316710E+03   1.297690E+03   1.262920E+03   1.217960E+03   1.206870E+03   1.206870E+03   1.196960E+03   1.187710E+03   1.192140E+03   1.210430E+03   1.210430E+03   1.239060E+03   1.253520E+03   1.271550E+03   1.286560E+03   1.286560E+03   1.271790E+03   1.274480E+03   1.291030E+03   1.306870E+03   1.306870E+03   1.316430E+03   1.355690E+03   1.424350E+03   1.484730E+03   1.484730E+03   1.444400E+03   1.425450E+03   1.483880E+03   1.522410E+03   1.522410E+03   1.537750E+03   1.558010E+03   1.560650E+03   1.507060E+03   1.507060E+03   1.442570E+03   1.347270E+03   1.293270E+03   1.262950E+03   1.262950E+03   1.243950E+03   1.229160E+03   1.216380E+03   1.203210E+03   1.203210E+03   1.190910E+03   1.180310E+03   1.173910E+03   1.174170E+03   1.174170E+03   1.178130E+03   1.187870E+03   1.194430E+03   1.213930E+03   1.213930E+03   1.258860E+03   1.295490E+03   1.336560E+03   1.308500E+03   1.308500E+03   1.265070E+03   1.242010E+03   1.236920E+03   1.211360E+03   1.211360E+03   1.166750E+03   1.110880E+03   1.067670E+03   1.039370E+03   1.039370E+03   1.026280E+03   1.016930E+03   1.008230E+03   9.995720E+02   9.995720E+02   9.973650E+02   9.985410E+02   1.002130E+03   1.003330E+03   1.003330E+03   1.004260E+03   1.007190E+03   1.022220E+03   1.068310E+03   1.068310E+03   1.147720E+03   1.229530E+03   1.245480E+03   1.246650E+03   1.246650E+03   1.285670E+03   1.249640E+03   1.198690E+03   1.139790E+03   1.139790E+03   1.101760E+03   1.876520E+03   3.307116E-01   3.307116E-01   3.307116E-01   3.307116E-01   3.307116E-01   3.307116E-01   3.307116E-01   3.307116E-01   3.307116E-01   3.307116E-01   3.307116E-01   3.307116E-01   3.307116E-01   3.307116E-01   3.307116E-01   3.307116E-01   3.307116E-01   3.307116E-01   3.307116E-01   3.307116E-01   3.307116E-01   3.307116E-01   3.307116E-01   3.307116E-01   3.307116E-01   3.307116E-01   3.307116E-01   3.307116E-01   3.307116E-01   3.307116E-01   3.307116E-01   3.307116E-01   3.307116E-01   3.307116E-01   3.307116E-01   3.307116E-01   3.307116E-01   3.307116E-01   3.307116E-01   3.307116E-01   3.307116E-01   3.307116E-01   3.307116E-01   3.307116E-01   3.307116E-01   3.307116E-01   3.307116E-01   3.307116E-01   3.307116E-01   3.307116E-01   3.307116E-01   3.307116E-01   3.307116E-01   3.307116E-01   3.307116E-01   3.307116E-01   3.307116E-01   3.307116E-01   3.307116E-01   3.307116E-01   3.307116E-01   3.307116E-01   3.307116E-01   3.307116E-01   3.307116E-01   3.307116E-01   3.307116E-01   3.307116E-01   3.307116E-01   3.307116E-01   3.307116E-01   3.307116E-01   3.307116E-01   3.307116E-01   3.307116E-01   3.307116E-01   3.307116E-01   3.307116E-01   3.307116E-01   3.307116E-01   3.307116E-01   3.307116E-01   3.307116E-01   3.307116E-01   3.307116E-01   3.307116E-01   3.307116E-01   3.307116E-01   3.307116E-01   3.307116E-01   3.307116E-01   3.307116E-01   3.307116E-01   3.307116E-01   3.307116E-01   3.307116E-01   3.307116E-01   3.307116E-01   3.307116E-01   3.307116E-01   3.307116E-01   3.307116E-01   3.307116E-01   3.307116E-01   3.307116E-01
   1.275210E+02   1.162460E+02   1.162460E+02   1.053460E+02   9.695830E+01   8.751370E+01   8.063140E+01   8.063140E+01   7.921160E+01   8.797650E+01   9.339930E+01   9.706180E+01   9.706180E+01   1.000110E+02   1.047760E+02   9.861410E+01   9.600650E+01   9.600650E+01   9.382120E+01   9.167210E+01   9.355020E+01   9.233190E+01   9.233190E+01   9.893310E+01   1.015290E+02   1.084800E+02   1.123040E+02   1.123040E+02   1.130820E+02   1.129740E+02   1.131670E+02   1.131530E+02   1.131530E+02   1.169910E+02   1.233940E+02   1.301720E+02   1.331950E+02   1.331950E+02   1.272660E+02   1.214330E+02   1.191630E+02   1.183300E+02   1.183300E+02   1.184210E+02   1.197890E+02   1.185960E+02   1.184090E+02   1.184090E+02   1.162930E+02   1.155000E+02   1.159100E+02   1.141100E+02   1.141100E+02   1.148470E+02   1.161060E+02   1.172810E+02   1.200740E+02   1.200740E+02   1.224620E+02   1.266590E+02   1.312020E+02   1.371120E+02   1.371120E+02   1.523760E+02   1.673250E+02   1.600550E+02   1.572490E+02   1.572490E+02   1.659500E+02   1.787960E+02   2.060930E+02   2.228650E+02   2.228650E+02   2.171180E+02   2.191950E+02   2.276140E+02   2.287250E+02   2.287250E+02   2.212440E+02   2.226190E+02   2.291090E+02   2.422780E+02   2.422780E+02   2.583770E+02   2.778130E+02   2.998040E+02   3.229370E+02   3.229370E+02   3.450750E+02   3.636510E+02   3.775540E+02   3.823500E+02   3.823500E+02   3.900170E+02   3.915370E+02   4.047930E+02   4.229030E+02   4.229030E+02   4.433950E+02   4.596140E+02   4.760930E+02   4.976840E+02   4.976840E+02   5.194060E+02   5.419300E+02   5.667920E+02   5.940880E+02   5.940880E+02   6.215920E+02   6.042720E+02   5.726780E+02   5.829760E+02   5.829760E+02   5.614340E+02   5.296070E+02   5.029910E+02   4.754760E+02   4.754760E+02   4.522680E+02   4.459400E+02   4.503670E+02   4.589170E+02   4.589170E+02   4.647760E+02   4.768160E+02   4.901040E+02   4.990070E+02   4.990070E+02   5.178240E+02   5.508240E+02   5.739950E+02   5.908130E+02   5.908130E+02   5.978090E+02   5.934220E+02   6.014920E+02   6.213450E+02   6.213450E+02   6.195880E+02   6.332350E+02   6.693580E+02   6.850870E+02   6.850870E+02   6.586610E+02   6.826900E+02   7.274720E+02   7.144140E+02   7.144140E+02   6.872530E+02   6.623310E+02   6.485000E+02   6.693880E+02   6.693880E+02   6.787090E+02   7.197050E+02   7.842330E+02   8.664820E+02   8.664820E+02   9.408400E+02   9.858630E+02   9.957880E+02   9.200620E+02   9.200620E+02   8.497280E+02   7.998850E+02   7.563760E+02   6.873140E+02   6.873140E+02   6.698590E+02   6.970780E+02   7.593140E+02   7.964590E+02   7.964590E+02   7.889130E+02   8.088620E+02   7.558890E+02   7.185510E+02   7.185510E+02   7.088580E+02   6.731070E+02   6.488770E+02   6.215810E+02   6.215810E+02   6.032950E+02   5.799870E+02   5.601090E+02   5.690520E+02   5.690520E+02   5.868710E+02   5.890570E+02   6.382280E+02   6.549840E+02   6.549840E+02   6.540790E+02   6.017270E+02   5.956400E+02   5.977350E+02   5.977350E+02   5.870220E+02   5.956440E+02   6.257890E+02   6.567580E+02   6.567580E+02   6.550890E+02   6.796160E+02   6.925440E+02   6.727240E+02   6.727240E+02   6.761430E+02   6.847000E+02   6.840350E+02   7.071820E+02   7.071820E+02   7.313970E+02   7.213840E+02   7.159320E+02   7.239000E+02   7.239000E+02   7.357780E+02   7.601000E+02   7.763190E+02   7.823340E+02   7.823340E+02   8.031640E+02   8.259020E+02   8.508500E+02   8.795060E+02   8.795060E+02   9.034660E+02   9.395960E+02   9.678820E+02   9.656190E+02   9.656190E+02   9.520640E+02   9.783490E+02   1.042180E+03   1.071730E+03   1.071730E+03   1.007580E+03   9.569350E+02   9.230720E+02   8.983860E+02   8.983860E+02   8.813630E+02   8.863020E+02   9.206020E+02   9.551700E+02   9.551700E+02   9.668000E+02   9.525040E+02   9.054260E+02   8.838710E+02   8.838710E+02   8.883410E+02   9.246750E+02   9.293630E+02   9.033170E+02   9.033170E+02   9.133350E+02   9.291330E+02   9.475940E+02   9.626950E+02   9.626950E+02   9.582400E+02   9.262590E+02   8.965840E+02   8.848210E+02   8.848210E+02   8.921710E+02   9.204380E+02   9.308300E+02   9.528090E+02   9.528090E+02   9.793580E+02   9.719090E+02   9.679500E+02   9.789300E+02   9.789300E+02   1.007390E+03   1.040180E+03   1.073240E+03   1.112360E+03   1.112360E+03   1.140660E+03   1.144490E+03   1.125910E+03   1.123500E+03   1.123500E+03   1.138010E+03   1.127760E+03   1.121710E+03   1.112600E+03   1.112600E+03   1.108550E+03   1.095510E+03   1.088440E+03   1.089000E+03   1.089000E+03   1.091160E+03   1.098800E+03   1.116820E+03   1.145760E+03   1.145760E+03   1.184380E+03   1.227900E+03   1.288420E+03   1.331350E+03   1.331350E+03   1.308020E+03   1.259270E+03   1.230610E+03   1.232840E+03   1.232840E+03   1.219600E+03   1.199880E+03   1.197970E+03   1.207660E+03   1.207660E+03   1.226600E+03   1.250570E+03   1.289200E+03   1.307120E+03   1.307120E+03   1.288260E+03   1.287610E+03   1.314030E+03   1.338370E+03   1.338370E+03   1.322280E+03   1.355020E+03   1.422210E+03   1.501250E+03   1.501250E+03   1.486520E+03   1.434460E+03   1.450950E+03   1.493270E+03   1.493270E+03   1.513380E+03   1.528590E+03   1.561760E+03   1.532710E+03   1.532710E+03   1.450680E+03   1.377010E+03   1.311700E+03   1.272270E+03   1.272270E+03   1.251750E+03   1.238770E+03   1.224340E+03   1.210220E+03   1.210220E+03   1.196600E+03   1.182120E+03   1.171560E+03   1.167660E+03   1.167660E+03   1.163550E+03   1.165800E+03   1.165770E+03   1.189280E+03   1.189280E+03   1.228210E+03   1.248500E+03   1.305120E+03   1.311080E+03   1.311080E+03   1.240530E+03   1.210350E+03   1.220690E+03   1.207040E+03   1.207040E+03   1.164270E+03   1.127750E+03   1.069270E+03   1.029050E+03   1.029050E+03   1.017090E+03   1.008500E+03   1.000620E+03   9.988070E+02   9.988070E+02   1.000970E+03   9.962170E+02   9.976670E+02   1.002070E+03   1.002070E+03   1.006520E+03   1.009750E+03   1.035250E+03   1.105480E+03   1.105480E+03   1.216880E+03   1.308390E+03   1.305740E+03   1.283410E+03   1.283410E+03   1.267990E+03   1.244360E+03   1.214670E+03   1.137350E+03   1.137350E+03   1.090070E+03   1.816190E+03   3.307116E-01   3.307116E-01   3.307116E-01   3.307116E-01   3.307116E-01   3.307116E-01   3.307116E-01   3.307116E-01   3.307116E-01   3.307116E-01   3.307116E-01   3.307116E-01   3.307116E-01   3.307116E-01   3.307116E-01   3.307116E-01   3.307116E-01   3.307116E-01   3.307116E-01   3.307116E-01   3.307116E-01   3.307116E-01   3.307116E-01   3.307116E-01   3.307116E-01   3.307116E-01   3.307116E-01   3.307116E-01   3.307116E-01   3.307116E-01   3.307116E-01   3.307116E-01   3.307116E-01   3.307116E-01   3.307116E-01   3.307116E-01   3.307116E-01   3.307116E-01   3.307116E-01   3.307116E-01   3.307116E-01   3.307116E-01   3.307116E-01   3.307116E-01   3.307116E-01   3.307116E-01   3.307116E-01   3.307116E-01   3.307116E-01   3.307116E-01   3.307116E-01   3.307116E-01   3.307116E-01   3.307116E-01   3.307116E-01   3.307116E-01   3.307116E-01   3.307116E-01   3.307116E-01   3.307116E-01   3.307116E-01   3.307116E-01   3.307116E-01   3.307116E-01   3.307116E-01   3.307116E-01   3.307116E-01   3.307116E-01   3.307116E-01   3.307116E-01   3.307116E-01   3.307116E-01   3.307116E-01   3.307116E-01   3.307116E-01   3.307116E-01   3.307116E-01   3.307116E-01   3.307116E-01   3.307116E-01   3.307116E-01   3.307116E-01   3.307116E-01   3.307116E-01   3.307116E-01   3.307116E-01   3.307116E-01   3.307116E-01   3.307116E-01   3.307116E-01   3.307116E-01   3.307116E-01   3.307116E-01   3.307116E-01   3.307116E-01   3.307116E-01   3.307116E-01   3.307116E-01   3.307116E-01   3.307116E-01   3.307116E-01   3.307116E-01   3.307116E-01   3.307116E-01   3.307116E-01
   1.275210E+02   1.162460E+02   1.162460E+02   1.053460E+02   9.695830E+01   8.751370E+01   8.063140E+01   8.063140E+01   7.921160E+01   8.797650E+01   9.339930E+01   9.706180E+01   9.706180E+01   1.000110E+02   1.047760E+02   9.861410E+01   9.600650E+01   9.600650E+01   9.382120E+01   9.167210E+01   9.355020E+01   9.233190E+01   9.233190E+01   9.893310E+01   1.015290E+02   1.084800E+02   1.123040E+02   1.123040E+02   1.130820E+02   1.129740E+02   1.131670E+02   1.131530E+02   1.131530E+02   1.169910E+02   1.233940E+02   1.301720E+02   1.331950E+02   1.331950E+02   1.272660E+02   1.214330E+02   1.191630E+02   1.183300E+02   1.183300E+02   1.184210E+02   1.197890E+02   1.185960E+02   1.184090E+02   1.184090E+02   1.162930E+02   1.155000E+02   1.159100E+02   1.141100E+02   1.141100E+02   1.148470E+02   1.161060E+02   1.172810E+02   1.200740E+02   1.200740E+02   1.224620E+02   1.266590E+02   1.312020E+02   1.371120E+02   1.371120E+02   1.523760E+02   1.673250E+02   1.600550E+02   1.572490E+02   1.572490E+02   1.659500E+02   1.787960E+02   2.060930E+02   2.228650E+02   2.228650E+02   2.171180E+02   2.191950E+02   2.276140E+02   2.287250E+02   2.287250E+02   2.212440E+02   2.226190E+02   2.291090E+02   2.422780E+02   2.422780E+02   2.583770E+02   2.778130E+02   2.998040E+02   3.229370E+02   3.229370E+02   3.450750E+02   3.636510E+02   3.775540E+02   3.823500E+02   3.823500E+02   3.900170E+02   3.915370E+02   4.047930E+02   4.229030E+02   4.229030E+02   4.433950E+02   4.596140E+02   4.760930E+02   4.976840E+02   4.976840E+02   5.194060E+02   5.419300E+02   5.667920E+02   5.940880E+02   5.940880E+02   6.215920E+02   6.042720E+02   5.726780E+02   5.829760E+02   5.829760E+02   5.614340E+02   5.296070E+02   5.029910E+02   4.754760E+02   4.754760E+02   4.522680E+02   4.459400E+02   4.503670E+02   4.589170E+02   4.589170E+02   4.647760E+02   4.768160E+02   4.901040E+02   4.990070E+02   4.990070E+02   5.178240E+02   5.508240E+02   5.739950E+02   5.908130E+02   5.908130E+02   5.978090E+02   5.934220E+02   6.014920E+02   6.213450E+02   6.213450E+02   6.195880E+02   6.332350E+02   6.693580E+02   6.850870E+02   6.850870E+02   6.586610E+02   6.826900E+02   7.274720E+02   7.144140E+02   7.144140E+02   6.872530E+02   6.623310E+02   6.485000E+02   6.693880E+02   6.693880E+02   6.787090E+02   7.197050E+02   7.842330E+02   8.664820E+02   8.664820E+02   9.408400E+02   9.858630E+02   9.957880E+02   9.200620E+02   9.200620E+02   8.497280E+02   7.998850E+02   7.563760E+02   6.873140E+02   6.873140E+02   6.698590E+02   6.970780E+02   7.593140E+02   7.964590E+02   7.964590E+02   7.889130E+02   8.088620E+02   7.558890E+02   7.185510E+02   7.185510E+02   7.088580E+02   6.731070E+02   6.488770E+02   6.215810E+02   6.215810E+02   6.032950E+02   5.799870E+02   5.601090E+02   5.690520E+02   5.690520E+02   5.868710E+02   5.890570E+02   6.382280E+02   6.549840E+02   6.549840E+02   6.540790E+02   6.017270E+02   5.956400E+02   5.977350E+02   5.977350E+02   5.870220E+02   5.956440E+02   6.257890E+02   6.567580E+02   6.567580E+02   6.550890E+02   6.796160E+02   6.925440E+02   6.727240E+02   6.727240E+02   6.761430E+02   6.847000E+02   6.840350E+02   7.071820E+02   7.071820E+02   7.313970E+02   7.213840E+02   7.159320E+02   7.239000E+02   7.239000E+02   7.357780E+02   7.601000E+02   7.763190E+02   7.823340E+02   7.823340E+02   8.031640E+02   8.259020E+02   8.508500E+02   8.795060E+02   8.795060E+02   9.034660E+02   9.395960E+02   9.678820E+02   9.656190E+02   9.656190E+02   9.520640E+02   9.783490E+02   1.042180E+03   1.071730E+03   1.071730E+03   1.007580E+03   9.569350E+02   9.230720E+02   8.983860E+02   8.983860E+02   8.813630E+02   8.863020E+02   9.206020E+02   9.551700E+02   9.551700E+02   9.668000E+02   9.525040E+02   9.054260E+02   8.838710E+02   8.838710E+02   8.883410E+02   9.246750E+02   9.293630E+02   9.033170E+02   9.033170E+02   9.133350E+02   9.291330E+02   9.475940E+02   9.626950E+02   9.626950E+02   9.582400E+02   9.262590E+02   8.965840E+02   8.848210E+02   8.848210E+02   8.921710E+02   9.204380E+02   9.308300E+02   9.528090E+02   9.528090E+02   9.793580E+02   9.719090E+02   9.679500E+02   9.789300E+02   9.789300E+02   1.007390E+03   1.040180E+03   1.073240E+03   1.112360E+03   1.112360E+03   1.140660E+03   1.144490E+03   1.125910E+03   1.123500E+03   1.123500E+03   1.138010E+03   1.127760E+03   1.121710E+03   1.112600E+03   1.112600E+03   1.108550E+03   1.095510E+03   1.088440E+03   1.089000E+03   1.089000E+03   1.091160E+03   1.098800E+03   1.116820E+03   1.145760E+03   1.145760E+03   1.184380E+03   1.227900E+03   1.288420E+03   1.331350E+03   1.331350E+03   1.308020E+03   1.259270E+03   1.230610E+03   1.232840E+03   1.232840E+03   1.219600E+03   1.199880E+03   1.197970E+03   1.207660E+03   1.207660E+03   1.226600E+03   1.250570E+03   1.289200E+03   1.307120E+03   1.307120E+03   1.288260E+03   1.287610E+03   1.314030E+03   1.338370E+03   1.338370E+03   1.322280E+03   1.355020E+03   1.422210E+03   1.501250E+03   1.501250E+03   1.486520E+03   1.434460E+03   1.450950E+03   1.493270E+03   1.493270E+03   1.513380E+03   1.528590E+03   1.561760E+03   1.532710E+03   1.532710E+03   1.450680E+03   1.377010E+03   1.311700E+03   1.272270E+03   1.272270E+03   1.251750E+03   1.238770E+03   1.224340E+03   1.210220E+03   1.210220E+03   1.196600E+03   1.182120E+03   1.171560E+03   1.167660E+03   1.167660E+03   1.163550E+03   1.165800E+03   1.165770E+03   1.189280E+03   1.189280E+03   1.228210E+03   1.248500E+03   1.305120E+03   1.311080E+03   1.311080E+03   1.240530E+03   1.210350E+03   1.220690E+03   1.207040E+03   1.207040E+03   1.164270E+03   1.127750E+03   1.069270E+03   1.029050E+03   1.029050E+03   1.017090E+03   1.008500E+03   1.000620E+03   9.988070E+02   9.988070E+02   1.000970E+03   9.962170E+02   9.976670E+02   1.002070E+03   1.002070E+03   1.006520E+03   1.009750E+03   1.035250E+03   1.105480E+03   1.105480E+03   1.216880E+03   1.308390E+03   1.305740E+03   1.283410E+03   1.283410E+03   1.267990E+03   1.244360E+03   1.214670E+03   1.137350E+03   1.137350E+03   1.090070E+03   1.816190E+03   3.307116E-01   3.307116E-01   3.307116E-01   3.307116E-01   3.307116E-01   3.307116E-01   3.307116E-01   3.307116E-01   3.307116E-01   3.307116E-01   3.307116E-01   3.307116E-01   3.307116E-01   3.307116E-01   3.307116E-01   3.307116E-01   3.307116E-01   3.307116E-01   3.307116E-01   3.307116E-01   3.307116E-01   3.307116E-01   3.307116E-01   3.307116E-01   3.307116E-01   3.307116E-01   3.307116E-01   3.307116E-01   3.307116E-01   3.307116E-01   3.307116E-01   3.307116E-01   3.307116E-01   3.307116E-01   3.307116E-01   3.307116E-01   3.307116E-01   3.307116E-01   3.307116E-01   3.307116E-01   3.307116E-01   3.307116E-01   3.307116E-01   3.307116E-01   3.307116E-01   3.307116E-01   3.307116E-01   3.307116E-01   3.307116E-01   3.307116E-01   3.307116E-01   3.307116E-01   3.307116E-01   3.307116E-01   3.307116E-01   3.307116E-01   3.307116E-01   3.307116E-01   3.307116E-01   3.307116E-01   3.307116E-01   3.307116E-01   3.307116E-01   3.307116E-01   3.307116E-01   3.307116E-01   3.307116E-01   3.307116E-01   3.307116E-01   3.307116E-01   3.307116E-01   3.307116E-01   3.307116E-01   3.307116E-01   3.307116E-01   3.307116E-01   3.307116E-01   3.307116E-01   3.307116E-01   3.307116E-01   3.307116E-01   3.307116E-01   3.307116E-01   3.307116E-01   3.307116E-01   3.307116E-01   3.307116E-01   3.307116E-01   3.307116E-01   3.307116E-01   3.307116E-01   3.307116E-01   3.307116E-01   3.307116E-01   3.307116E-01   3.307116E-01   3.307116E-01   3.307116E-01   3.307116E-01   3.307116E-01   3.307116E-01   3.307116E-01   3.307116E-01   3.307116E-01   3.307116E-01