# CHD package for  MODFLOW-NWT, generated by Flopy.
         8
         8         0 # stress period 1
         1       506       434          1385.0          1385.0
         1       506       435          1385.0          1385.0
         1       506       436          1385.0          1385.0
         1       506       437          1385.0          1385.0
         1       435       477          1433.0          1433.0
         1       436       477          1389.0          1389.0
         1       526       492          1570.0          1570.0
         1       527       492          1570.0          1570.0
         8         0 # stress period 2
         1       506       434          1385.0          1385.0
         1       506       435          1385.0          1385.0
         1       506       436          1385.0          1385.0
         1       506       437          1385.0          1385.0
         1       435       477          1433.0          1433.0
         1       436       477          1389.0          1389.0
         1       526       492          1570.0          1570.0
         1       527       492          1570.0          1570.0
         8         0 # stress period 3
         1       506       434          1385.0          1385.0
         1       506       435          1385.0          1385.0
         1       506       436          1385.0          1385.0
         1       506       437          1385.0          1385.0
         1       435       477          1433.0          1433.0
         1       436       477          1389.0          1389.0
         1       526       492          1570.0          1570.0
         1       527       492          1570.0          1570.0
         8         0 # stress period 4
         1       506       434          1385.0          1385.0
         1       506       435          1385.0          1385.0
         1       506       436          1385.0          1385.0
         1       506       437          1385.0          1385.0
         1       435       477          1433.0          1433.0
         1       436       477          1389.0          1389.0
         1       526       492          1570.0          1570.0
         1       527       492          1570.0          1570.0
         8         0 # stress period 5
         1       506       434          1385.0          1385.0
         1       506       435          1385.0          1385.0
         1       506       436          1385.0          1385.0
         1       506       437          1385.0          1385.0
         1       435       477          1433.0          1433.0
         1       436       477          1389.0          1389.0
         1       526       492          1570.0          1570.0
         1       527       492          1570.0          1570.0
         8         0 # stress period 6
         1       506       434          1385.0          1385.0
         1       506       435          1385.0          1385.0
         1       506       436          1385.0          1385.0
         1       506       437          1385.0          1385.0
         1       435       477          1433.0          1433.0
         1       436       477          1389.0          1389.0
         1       526       492          1570.0          1570.0
         1       527       492          1570.0          1570.0
         8         0 # stress period 7
         1       506       434          1385.0          1385.0
         1       506       435          1385.0          1385.0
         1       506       436          1385.0          1385.0
         1       506       437          1385.0          1385.0
         1       435       477          1433.0          1433.0
         1       436       477          1389.0          1389.0
         1       526       492          1570.0          1570.0
         1       527       492          1570.0          1570.0
         8         0 # stress period 8
         1       506       434          1385.0          1385.0
         1       506       435          1385.0          1385.0
         1       506       436          1385.0          1385.0
         1       506       437          1385.0          1385.0
         1       435       477          1433.0          1433.0
         1       436       477          1389.0          1389.0
         1       526       492          1570.0          1570.0
         1       527       492          1570.0          1570.0
         8         0 # stress period 9
         1       506       434          1385.0          1385.0
         1       506       435          1385.0          1385.0
         1       506       436          1385.0          1385.0
         1       506       437          1385.0          1385.0
         1       435       477          1433.0          1433.0
         1       436       477          1389.0          1389.0
         1       526       492          1570.0          1570.0
         1       527       492          1570.0          1570.0
         8         0 # stress period 10
         1       506       434          1385.0          1385.0
         1       506       435          1385.0          1385.0
         1       506       436          1385.0          1385.0
         1       506       437          1385.0          1385.0
         1       435       477          1433.0          1433.0
         1       436       477          1389.0          1389.0
         1       526       492          1570.0          1570.0
         1       527       492          1570.0          1570.0
         8         0 # stress period 11
         1       506       434          1385.0          1385.0
         1       506       435          1385.0          1385.0
         1       506       436          1385.0          1385.0
         1       506       437          1385.0          1385.0
         1       435       477          1433.0          1433.0
         1       436       477          1389.0          1389.0
         1       526       492          1570.0          1570.0
         1       527       492          1570.0          1570.0
         8         0 # stress period 12
         1       506       434          1385.0          1385.0
         1       506       435          1385.0          1385.0
         1       506       436          1385.0          1385.0
         1       506       437          1385.0          1385.0
         1       435       477          1433.0          1433.0
         1       436       477          1389.0          1389.0
         1       526       492          1570.0          1570.0
         1       527       492          1570.0          1570.0
         8         0 # stress period 13
         1       506       434          1385.0          1385.0
         1       506       435          1385.0          1385.0
         1       506       436          1385.0          1385.0
         1       506       437          1385.0          1385.0
         1       435       477          1433.0          1433.0
         1       436       477          1389.0          1389.0
         1       526       492          1570.0          1570.0
         1       527       492          1570.0          1570.0
         8         0 # stress period 14
         1       506       434          1385.0          1385.0
         1       506       435          1385.0          1385.0
         1       506       436          1385.0          1385.0
         1       506       437          1385.0          1385.0
         1       435       477          1433.0          1433.0
         1       436       477          1389.0          1389.0
         1       526       492          1570.0          1570.0
         1       527       492          1570.0          1570.0
         8         0 # stress period 15
         1       506       434          1385.0          1385.0
         1       506       435          1385.0          1385.0
         1       506       436          1385.0          1385.0
         1       506       437          1385.0          1385.0
         1       435       477          1433.0          1433.0
         1       436       477          1389.0          1389.0
         1       526       492          1570.0          1570.0
         1       527       492          1570.0          1570.0
         8         0 # stress period 16
         1       506       434          1385.0          1385.0
         1       506       435          1385.0          1385.0
         1       506       436          1385.0          1385.0
         1       506       437          1385.0          1385.0
         1       435       477          1433.0          1433.0
         1       436       477          1389.0          1389.0
         1       526       492          1570.0          1570.0
         1       527       492          1570.0          1570.0
         8         0 # stress period 17
         1       506       434          1385.0          1385.0
         1       506       435          1385.0          1385.0
         1       506       436          1385.0          1385.0
         1       506       437          1385.0          1385.0
         1       435       477          1433.0          1433.0
         1       436       477          1389.0          1389.0
         1       526       492          1570.0          1570.0
         1       527       492          1570.0          1570.0
         8         0 # stress period 18
         1       506       434          1385.0          1385.0
         1       506       435          1385.0          1385.0
         1       506       436          1385.0          1385.0
         1       506       437          1385.0          1385.0
         1       435       477          1433.0          1433.0
         1       436       477          1389.0          1389.0
         1       526       492          1570.0          1570.0
         1       527       492          1570.0          1570.0
         8         0 # stress period 19
         1       506       434          1385.0          1385.0
         1       506       435          1385.0          1385.0
         1       506       436          1385.0          1385.0
         1       506       437          1385.0          1385.0
         1       435       477          1433.0          1433.0
         1       436       477          1389.0          1389.0
         1       526       492          1570.0          1570.0
         1       527       492          1570.0          1570.0
         8         0 # stress period 20
         1       506       434          1385.0          1385.0
         1       506       435          1385.0          1385.0
         1       506       436          1385.0          1385.0
         1       506       437          1385.0          1385.0
         1       435       477          1433.0          1433.0
         1       436       477          1389.0          1389.0
         1       526       492          1570.0          1570.0
         1       527       492          1570.0          1570.0
         8         0 # stress period 21
         1       506       434          1385.0          1385.0
         1       506       435          1385.0          1385.0
         1       506       436          1385.0          1385.0
         1       506       437          1385.0          1385.0
         1       435       477          1433.0          1433.0
         1       436       477          1389.0          1389.0
         1       526       492          1570.0          1570.0
         1       527       492          1570.0          1570.0
         8         0 # stress period 22
         1       506       434          1385.0          1385.0
         1       506       435          1385.0          1385.0
         1       506       436          1385.0          1385.0
         1       506       437          1385.0          1385.0
         1       435       477          1433.0          1433.0
         1       436       477          1389.0          1389.0
         1       526       492          1570.0          1570.0
         1       527       492          1570.0          1570.0
         8         0 # stress period 23
         1       506       434          1385.0          1385.0
         1       506       435          1385.0          1385.0
         1       506       436          1385.0          1385.0
         1       506       437          1385.0          1385.0
         1       435       477          1433.0          1433.0
         1       436       477          1389.0          1389.0
         1       526       492          1570.0          1570.0
         1       527       492          1570.0          1570.0
         8         0 # stress period 24
         1       506       434          1385.0          1385.0
         1       506       435          1385.0          1385.0
         1       506       436          1385.0          1385.0
         1       506       437          1385.0          1385.0
         1       435       477          1433.0          1433.0
         1       436       477          1389.0          1389.0
         1       526       492          1570.0          1570.0
         1       527       492          1570.0          1570.0
         8         0 # stress period 25
         1       506       434          1385.0          1385.0
         1       506       435          1385.0          1385.0
         1       506       436          1385.0          1385.0
         1       506       437          1385.0          1385.0
         1       435       477          1433.0          1433.0
         1       436       477          1389.0          1389.0
         1       526       492          1570.0          1570.0
         1       527       492          1570.0          1570.0
         8         0 # stress period 26
         1       506       434          1385.0          1385.0
         1       506       435          1385.0          1385.0
         1       506       436          1385.0          1385.0
         1       506       437          1385.0          1385.0
         1       435       477          1433.0          1433.0
         1       436       477          1389.0          1389.0
         1       526       492          1570.0          1570.0
         1       527       492          1570.0          1570.0
         8         0 # stress period 27
         1       506       434          1385.0          1385.0
         1       506       435          1385.0          1385.0
         1       506       436          1385.0          1385.0
         1       506       437          1385.0          1385.0
         1       435       477          1433.0          1433.0
         1       436       477          1389.0          1389.0
         1       526       492          1570.0          1570.0
         1       527       492          1570.0          1570.0
         8         0 # stress period 28
         1       506       434          1385.0          1385.0
         1       506       435          1385.0          1385.0
         1       506       436          1385.0          1385.0
         1       506       437          1385.0          1385.0
         1       435       477          1433.0          1433.0
         1       436       477          1389.0          1389.0
         1       526       492          1570.0          1570.0
         1       527       492          1570.0          1570.0
         8         0 # stress period 29
         1       506       434          1385.0          1385.0
         1       506       435          1385.0          1385.0
         1       506       436          1385.0          1385.0
         1       506       437          1385.0          1385.0
         1       435       477          1433.0          1433.0
         1       436       477          1389.0          1389.0
         1       526       492          1570.0          1570.0
         1       527       492          1570.0          1570.0
         8         0 # stress period 30
         1       506       434          1385.0          1385.0
         1       506       435          1385.0          1385.0
         1       506       436          1385.0          1385.0
         1       506       437          1385.0          1385.0
         1       435       477          1433.0          1433.0
         1       436       477          1389.0          1389.0
         1       526       492          1570.0          1570.0
         1       527       492          1570.0          1570.0
         8         0 # stress period 31
         1       506       434          1385.0          1385.0
         1       506       435          1385.0          1385.0
         1       506       436          1385.0          1385.0
         1       506       437          1385.0          1385.0
         1       435       477          1433.0          1433.0
         1       436       477          1389.0          1389.0
         1       526       492          1570.0          1570.0
         1       527       492          1570.0          1570.0
         8         0 # stress period 32
         1       506       434          1385.0          1385.0
         1       506       435          1385.0          1385.0
         1       506       436          1385.0          1385.0
         1       506       437          1385.0          1385.0
         1       435       477          1433.0          1433.0
         1       436       477          1389.0          1389.0
         1       526       492          1570.0          1570.0
         1       527       492          1570.0          1570.0
         8         0 # stress period 33
         1       506       434          1385.0          1385.0
         1       506       435          1385.0          1385.0
         1       506       436          1385.0          1385.0
         1       506       437          1385.0          1385.0
         1       435       477          1433.0          1433.0
         1       436       477          1389.0          1389.0
         1       526       492          1570.0          1570.0
         1       527       492          1570.0          1570.0
         8         0 # stress period 34
         1       506       434          1385.0          1385.0
         1       506       435          1385.0          1385.0
         1       506       436          1385.0          1385.0
         1       506       437          1385.0          1385.0
         1       435       477          1433.0          1433.0
         1       436       477          1389.0          1389.0
         1       526       492          1570.0          1570.0
         1       527       492          1570.0          1570.0
         8         0 # stress period 35
         1       506       434          1385.0          1385.0
         1       506       435          1385.0          1385.0
         1       506       436          1385.0          1385.0
         1       506       437          1385.0          1385.0
         1       435       477          1433.0          1433.0
         1       436       477          1389.0          1389.0
         1       526       492          1570.0          1570.0
         1       527       492          1570.0          1570.0
         8         0 # stress period 36
         1       506       434          1385.0          1385.0
         1       506       435          1385.0          1385.0
         1       506       436          1385.0          1385.0
         1       506       437          1385.0          1385.0
         1       435       477          1433.0          1433.0
         1       436       477          1389.0          1389.0
         1       526       492          1570.0          1570.0
         1       527       492          1570.0          1570.0
         8         0 # stress period 37
         1       506       434          1385.0          1385.0
         1       506       435          1385.0          1385.0
         1       506       436          1385.0          1385.0
         1       506       437          1385.0          1385.0
         1       435       477          1433.0          1433.0
         1       436       477          1389.0          1389.0
         1       526       492          1570.0          1570.0
         1       527       492          1570.0          1570.0
         8         0 # stress period 38
         1       506       434          1385.0          1385.0
         1       506       435          1385.0          1385.0
         1       506       436          1385.0          1385.0
         1       506       437          1385.0          1385.0
         1       435       477          1433.0          1433.0
         1       436       477          1389.0          1389.0
         1       526       492          1570.0          1570.0
         1       527       492          1570.0          1570.0
         8         0 # stress period 39
         1       506       434          1385.0          1385.0
         1       506       435          1385.0          1385.0
         1       506       436          1385.0          1385.0
         1       506       437          1385.0          1385.0
         1       435       477          1433.0          1433.0
         1       436       477          1389.0          1389.0
         1       526       492          1570.0          1570.0
         1       527       492          1570.0          1570.0
         8         0 # stress period 40
         1       506       434          1385.0          1385.0
         1       506       435          1385.0          1385.0
         1       506       436          1385.0          1385.0
         1       506       437          1385.0          1385.0
         1       435       477          1433.0          1433.0
         1       436       477          1389.0          1389.0
         1       526       492          1570.0          1570.0
         1       527       492          1570.0          1570.0
         8         0 # stress period 41
         1       506       434          1385.0          1385.0
         1       506       435          1385.0          1385.0
         1       506       436          1385.0          1385.0
         1       506       437          1385.0          1385.0
         1       435       477          1433.0          1433.0
         1       436       477          1389.0          1389.0
         1       526       492          1570.0          1570.0
         1       527       492          1570.0          1570.0
         8         0 # stress period 42
         1       506       434          1385.0          1385.0
         1       506       435          1385.0          1385.0
         1       506       436          1385.0          1385.0
         1       506       437          1385.0          1385.0
         1       435       477          1433.0          1433.0
         1       436       477          1389.0          1389.0
         1       526       492          1570.0          1570.0
         1       527       492          1570.0          1570.0
         8         0 # stress period 43
         1       506       434          1385.0          1385.0
         1       506       435          1385.0          1385.0
         1       506       436          1385.0          1385.0
         1       506       437          1385.0          1385.0
         1       435       477          1433.0          1433.0
         1       436       477          1389.0          1389.0
         1       526       492          1570.0          1570.0
         1       527       492          1570.0          1570.0
         8         0 # stress period 44
         1       506       434          1385.0          1385.0
         1       506       435          1385.0          1385.0
         1       506       436          1385.0          1385.0
         1       506       437          1385.0          1385.0
         1       435       477          1433.0          1433.0
         1       436       477          1389.0          1389.0
         1       526       492          1570.0          1570.0
         1       527       492          1570.0          1570.0
         8         0 # stress period 45
         1       506       434          1385.0          1385.0
         1       506       435          1385.0          1385.0
         1       506       436          1385.0          1385.0
         1       506       437          1385.0          1385.0
         1       435       477          1433.0          1433.0
         1       436       477          1389.0          1389.0
         1       526       492          1570.0          1570.0
         1       527       492          1570.0          1570.0
         8         0 # stress period 46
         1       506       434          1385.0          1385.0
         1       506       435          1385.0          1385.0
         1       506       436          1385.0          1385.0
         1       506       437          1385.0          1385.0
         1       435       477          1433.0          1433.0
         1       436       477          1389.0          1389.0
         1       526       492          1570.0          1570.0
         1       527       492          1570.0          1570.0
         8         0 # stress period 47
         1       506       434          1385.0          1385.0
         1       506       435          1385.0          1385.0
         1       506       436          1385.0          1385.0
         1       506       437          1385.0          1385.0
         1       435       477          1433.0          1433.0
         1       436       477          1389.0          1389.0
         1       526       492          1570.0          1570.0
         1       527       492          1570.0          1570.0
         8         0 # stress period 48
         1       506       434          1385.0          1385.0
         1       506       435          1385.0          1385.0
         1       506       436          1385.0          1385.0
         1       506       437          1385.0          1385.0
         1       435       477          1433.0          1433.0
         1       436       477          1389.0          1389.0
         1       526       492          1570.0          1570.0
         1       527       492          1570.0          1570.0
         8         0 # stress period 49
         1       506       434          1385.0          1385.0
         1       506       435          1385.0          1385.0
         1       506       436          1385.0          1385.0
         1       506       437          1385.0          1385.0
         1       435       477          1433.0          1433.0
         1       436       477          1389.0          1389.0
         1       526       492          1570.0          1570.0
         1       527       492          1570.0          1570.0
         8         0 # stress period 50
         1       506       434          1385.0          1385.0
         1       506       435          1385.0          1385.0
         1       506       436          1385.0          1385.0
         1       506       437          1385.0          1385.0
         1       435       477          1433.0          1433.0
         1       436       477          1389.0          1389.0
         1       526       492          1570.0          1570.0
         1       527       492          1570.0          1570.0
         8         0 # stress period 51
         1       506       434          1385.0          1385.0
         1       506       435          1385.0          1385.0
         1       506       436          1385.0          1385.0
         1       506       437          1385.0          1385.0
         1       435       477          1433.0          1433.0
         1       436       477          1389.0          1389.0
         1       526       492          1570.0          1570.0
         1       527       492          1570.0          1570.0
         8         0 # stress period 52
         1       506       434          1385.0          1385.0
         1       506       435          1385.0          1385.0
         1       506       436          1385.0          1385.0
         1       506       437          1385.0          1385.0
         1       435       477          1433.0          1433.0
         1       436       477          1389.0          1389.0
         1       526       492          1570.0          1570.0
         1       527       492          1570.0          1570.0
         8         0 # stress period 53
         1       506       434          1385.0          1385.0
         1       506       435          1385.0          1385.0
         1       506       436          1385.0          1385.0
         1       506       437          1385.0          1385.0
         1       435       477          1433.0          1433.0
         1       436       477          1389.0          1389.0
         1       526       492          1570.0          1570.0
         1       527       492          1570.0          1570.0
         8         0 # stress period 54
         1       506       434          1385.0          1385.0
         1       506       435          1385.0          1385.0
         1       506       436          1385.0          1385.0
         1       506       437          1385.0          1385.0
         1       435       477          1433.0          1433.0
         1       436       477          1389.0          1389.0
         1       526       492          1570.0          1570.0
         1       527       492          1570.0          1570.0
         8         0 # stress period 55
         1       506       434          1385.0          1385.0
         1       506       435          1385.0          1385.0
         1       506       436          1385.0          1385.0
         1       506       437          1385.0          1385.0
         1       435       477          1433.0          1433.0
         1       436       477          1389.0          1389.0
         1       526       492          1570.0          1570.0
         1       527       492          1570.0          1570.0