# NWT package for  MODFLOW-NWT, generated by Flopy.
 1.000e-03 6.000e-02       500 1.000e-05         2         0         1   COMPLEX
