# DRN: Drain package file created on 26-12-2022 by ModelMuse version 5.0.0.0.
# MODFLOW2000 Drain Package
   681     9 AUXILIARY IFACE # DataSet 2: MXACTD IDRNCB Option
   681     0 # Data Set 5: ITMP NP Stress period 1
     1    65     4  9.090000000000E+001   1.000000000000E+002      0 # Data Set 6: Layer Row Column Elevation Cond IFACE
     1    66     5  7.340000000000E+001   1.000000000000E+002      0 # Data Set 6: Layer Row Column Elevation Cond IFACE
     1    66     6  7.900000000000E+001   1.000000000000E+002      0 # Data Set 6: Layer Row Column Elevation Cond IFACE
     1    67     7  7.880000000000E+001   1.000000000000E+002      0 # Data Set 6: Layer Row Column Elevation Cond IFACE
     1    67     8  1.135000000000E+002   1.000000000000E+002      0 # Data Set 6: Layer Row Column Elevation Cond IFACE
     1    67     9  1.146000000000E+002   1.000000000000E+002      0 # Data Set 6: Layer Row Column Elevation Cond IFACE
     1    67    10  1.146000000000E+002   1.000000000000E+002      0 # Data Set 6: Layer Row Column Elevation Cond IFACE
     1    67    11  1.096000000000E+002   1.000000000000E+002      0 # Data Set 6: Layer Row Column Elevation Cond IFACE
     1    67    12  9.510000000000E+001   1.000000000000E+002      0 # Data Set 6: Layer Row Column Elevation Cond IFACE
     1    67    13  8.840000000000E+001   1.000000000000E+002      0 # Data Set 6: Layer Row Column Elevation Cond IFACE
     1    68    14  8.560000000000E+001   1.000000000000E+002      0 # Data Set 6: Layer Row Column Elevation Cond IFACE
     1    69    15  9.550000000000E+001   1.000000000000E+002      0 # Data Set 6: Layer Row Column Elevation Cond IFACE
     1    70    16  9.000000000000E+001   1.000000000000E+002      0 # Data Set 6: Layer Row Column Elevation Cond IFACE
     1    71    17  8.920000000000E+001   1.000000000000E+002      0 # Data Set 6: Layer Row Column Elevation Cond IFACE
     1    72    18  9.110000000000E+001   1.000000000000E+002      0 # Data Set 6: Layer Row Column Elevation Cond IFACE
     1    73    19  9.380000000000E+001   1.000000000000E+002      0 # Data Set 6: Layer Row Column Elevation Cond IFACE
     1    74    20  1.092000000000E+002   1.000000000000E+002      0 # Data Set 6: Layer Row Column Elevation Cond IFACE
     1    74    21  9.690000000000E+001   1.000000000000E+002      0 # Data Set 6: Layer Row Column Elevation Cond IFACE
     1    74    22  9.400000000000E+001   1.000000000000E+002      0 # Data Set 6: Layer Row Column Elevation Cond IFACE
     1    75    23  9.620000000000E+001   1.000000000000E+002      0 # Data Set 6: Layer Row Column Elevation Cond IFACE
     1    75    24  9.790000000000E+001   1.000000000000E+002      0 # Data Set 6: Layer Row Column Elevation Cond IFACE
     1    75    25  9.790000000000E+001   1.000000000000E+002      0 # Data Set 6: Layer Row Column Elevation Cond IFACE
     1    75    26  9.910000000000E+001   1.000000000000E+002      0 # Data Set 6: Layer Row Column Elevation Cond IFACE
     1    75    27  1.007000000000E+002   1.000000000000E+002      0 # Data Set 6: Layer Row Column Elevation Cond IFACE
     1    75    28  1.011000000000E+002   1.000000000000E+002      0 # Data Set 6: Layer Row Column Elevation Cond IFACE
     1    75    29  1.022000000000E+002   1.000000000000E+002      0 # Data Set 6: Layer Row Column Elevation Cond IFACE
     1    75    30  1.022000000000E+002   1.000000000000E+002      0 # Data Set 6: Layer Row Column Elevation Cond IFACE
     1    75    31  1.033000000000E+002   1.000000000000E+002      0 # Data Set 6: Layer Row Column Elevation Cond IFACE
     1    75    32  1.048000000000E+002   1.000000000000E+002      0 # Data Set 6: Layer Row Column Elevation Cond IFACE
     1    75    33  1.057000000000E+002   1.000000000000E+002      0 # Data Set 6: Layer Row Column Elevation Cond IFACE
     1    76    34  1.079000000000E+002   1.000000000000E+002      0 # Data Set 6: Layer Row Column Elevation Cond IFACE
     1    77    35  1.111000000000E+002   1.000000000000E+002      0 # Data Set 6: Layer Row Column Elevation Cond IFACE
     1    78    36  1.086000000000E+002   1.000000000000E+002      0 # Data Set 6: Layer Row Column Elevation Cond IFACE
     1    78    37  1.090000000000E+002   1.000000000000E+002      0 # Data Set 6: Layer Row Column Elevation Cond IFACE
     1    79    38  1.119000000000E+002   1.000000000000E+002      0 # Data Set 6: Layer Row Column Elevation Cond IFACE
     1    79    39  1.131000000000E+002   1.000000000000E+002      0 # Data Set 6: Layer Row Column Elevation Cond IFACE
     1    80    40  1.131000000000E+002   1.000000000000E+000      0 # Data Set 6: Layer Row Column Elevation Cond IFACE
     1    80    41  1.133000000000E+002   1.000000000000E+000      0 # Data Set 6: Layer Row Column Elevation Cond IFACE
     1    80    42  1.165000000000E+002   1.000000000000E+000      0 # Data Set 6: Layer Row Column Elevation Cond IFACE
     1    81    43  1.171000000000E+002   1.000000000000E+000      0 # Data Set 6: Layer Row Column Elevation Cond IFACE
     1    81    44  1.201000000000E+002   1.000000000000E+000      0 # Data Set 6: Layer Row Column Elevation Cond IFACE
     1    81    45  1.201000000000E+002   1.000000000000E+000      0 # Data Set 6: Layer Row Column Elevation Cond IFACE
     1    81    46  1.216000000000E+002   1.000000000000E+000      0 # Data Set 6: Layer Row Column Elevation Cond IFACE
     1    81    47  1.222000000000E+002   1.000000000000E+000      0 # Data Set 6: Layer Row Column Elevation Cond IFACE
     1    81    48  1.248000000000E+002   1.000000000000E+000      0 # Data Set 6: Layer Row Column Elevation Cond IFACE
     1    81    49  1.260000000000E+002   1.000000000000E+000      0 # Data Set 6: Layer Row Column Elevation Cond IFACE
     1    81    50  1.260000000000E+002   1.000000000000E+000      0 # Data Set 6: Layer Row Column Elevation Cond IFACE
     1    81    51  1.264000000000E+002   1.000000000000E+000      0 # Data Set 6: Layer Row Column Elevation Cond IFACE
     1    81    52  1.258000000000E+002   1.000000000000E+000      0 # Data Set 6: Layer Row Column Elevation Cond IFACE
     1    81    53  1.266000000000E+002   1.000000000000E+000      0 # Data Set 6: Layer Row Column Elevation Cond IFACE
     1    81    54  1.297000000000E+002   1.000000000000E+000      0 # Data Set 6: Layer Row Column Elevation Cond IFACE
     1    81    55  1.297000000000E+002   1.000000000000E+000      0 # Data Set 6: Layer Row Column Elevation Cond IFACE
     1    81    56  1.306000000000E+002   1.000000000000E+000      0 # Data Set 6: Layer Row Column Elevation Cond IFACE
     1    81    57  1.321000000000E+002   1.000000000000E+002      0 # Data Set 6: Layer Row Column Elevation Cond IFACE
     1    81    58  1.310000000000E+002   1.000000000000E+002      0 # Data Set 6: Layer Row Column Elevation Cond IFACE
     1    80    59  1.342000000000E+002   1.000000000000E+002      0 # Data Set 6: Layer Row Column Elevation Cond IFACE
     1    81    59  1.303000000000E+002   1.000000000000E+002      0 # Data Set 6: Layer Row Column Elevation Cond IFACE
     1    80    60  1.342000000000E+002   1.000000000000E+002      0 # Data Set 6: Layer Row Column Elevation Cond IFACE
     1    80    61  1.352000000000E+002   1.000000000000E+002      0 # Data Set 6: Layer Row Column Elevation Cond IFACE
     1    80    62  1.356000000000E+002   1.000000000000E+002      0 # Data Set 6: Layer Row Column Elevation Cond IFACE
     1    80    63  1.381000000000E+002   1.000000000000E+002      0 # Data Set 6: Layer Row Column Elevation Cond IFACE
     1    80    64  1.400000000000E+002   1.000000000000E+002      0 # Data Set 6: Layer Row Column Elevation Cond IFACE
     1    81    65  1.368000000000E+002   1.000000000000E+002      0 # Data Set 6: Layer Row Column Elevation Cond IFACE
     1    81    66  1.405000000000E+002   1.000000000000E+002      0 # Data Set 6: Layer Row Column Elevation Cond IFACE
     1    82    67  1.416000000000E+002   1.000000000000E+002      0 # Data Set 6: Layer Row Column Elevation Cond IFACE
     1    82    68  1.452000000000E+002   1.000000000000E+002      0 # Data Set 6: Layer Row Column Elevation Cond IFACE
     1    83    69  1.468000000000E+002   1.000000000000E+002      0 # Data Set 6: Layer Row Column Elevation Cond IFACE
     1    84    70  1.443000000000E+002   1.000000000000E+002      0 # Data Set 6: Layer Row Column Elevation Cond IFACE
     1    84    71  1.458000000000E+002   1.000000000000E+002      0 # Data Set 6: Layer Row Column Elevation Cond IFACE
     1    84    72  1.462000000000E+002   1.000000000000E+002      0 # Data Set 6: Layer Row Column Elevation Cond IFACE
     1    84    73  1.469000000000E+002   1.000000000000E+002      0 # Data Set 6: Layer Row Column Elevation Cond IFACE
     1    84    74  1.479000000000E+002   1.000000000000E+002      0 # Data Set 6: Layer Row Column Elevation Cond IFACE
     1    84    75  1.479000000000E+002   1.000000000000E+002      0 # Data Set 6: Layer Row Column Elevation Cond IFACE
     1    84    76  1.494000000000E+002   1.000000000000E+002      0 # Data Set 6: Layer Row Column Elevation Cond IFACE
     1    85    77  1.526000000000E+002   1.000000000000E+002      0 # Data Set 6: Layer Row Column Elevation Cond IFACE
     1    85    78  1.552000000000E+002   1.000000000000E+002      0 # Data Set 6: Layer Row Column Elevation Cond IFACE
     1    85    79  1.571000000000E+002   1.000000000000E+002      0 # Data Set 6: Layer Row Column Elevation Cond IFACE
     1    86    80  1.554000000000E+002   1.000000000000E+002      0 # Data Set 6: Layer Row Column Elevation Cond IFACE
     1    86    81  1.583000000000E+002   1.000000000000E+002      0 # Data Set 6: Layer Row Column Elevation Cond IFACE
     1    86    82  1.597000000000E+002   1.000000000000E+002      0 # Data Set 6: Layer Row Column Elevation Cond IFACE
     1    86    83  1.610000000000E+002   1.000000000000E+002      0 # Data Set 6: Layer Row Column Elevation Cond IFACE
     1    86    84  1.620000000000E+002   1.000000000000E+002      0 # Data Set 6: Layer Row Column Elevation Cond IFACE
     1    86    85  1.620000000000E+002   1.000000000000E+002      0 # Data Set 6: Layer Row Column Elevation Cond IFACE
     1    86    86  1.619000000000E+002   1.000000000000E+002      0 # Data Set 6: Layer Row Column Elevation Cond IFACE
     1    86    87  1.617000000000E+002   1.000000000000E+002      0 # Data Set 6: Layer Row Column Elevation Cond IFACE
     1    86    88  1.630000000000E+002   1.000000000000E+002      0 # Data Set 6: Layer Row Column Elevation Cond IFACE
     1    86    89  1.637000000000E+002   1.000000000000E+002      0 # Data Set 6: Layer Row Column Elevation Cond IFACE
     1    85    90  1.669000000000E+002   1.000000000000E+002      0 # Data Set 6: Layer Row Column Elevation Cond IFACE
     1    85    91  1.678000000000E+002   1.000000000000E+002      0 # Data Set 6: Layer Row Column Elevation Cond IFACE
     1    84    92  1.685000000000E+002   1.000000000000E+002      0 # Data Set 6: Layer Row Column Elevation Cond IFACE
     1    84    93  1.689000000000E+002   1.000000000000E+002      0 # Data Set 6: Layer Row Column Elevation Cond IFACE
     1    84    94  1.706000000000E+002   1.000000000000E+002      0 # Data Set 6: Layer Row Column Elevation Cond IFACE
     1    83    95  1.712000000000E+002   1.000000000000E+002      0 # Data Set 6: Layer Row Column Elevation Cond IFACE
     1    82    96  1.718000000000E+002   1.000000000000E+002      0 # Data Set 6: Layer Row Column Elevation Cond IFACE
     1    82    97  1.718000000000E+002   1.000000000000E+002      0 # Data Set 6: Layer Row Column Elevation Cond IFACE
     1    81    98  1.732000000000E+002   1.000000000000E+002      0 # Data Set 6: Layer Row Column Elevation Cond IFACE
     1    81    99  1.742000000000E+002   1.000000000000E+002      0 # Data Set 6: Layer Row Column Elevation Cond IFACE
     1    81   100  1.742000000000E+002   1.000000000000E+002      0 # Data Set 6: Layer Row Column Elevation Cond IFACE
     1    81   101  1.753000000000E+002   1.000000000000E+003      0 # Data Set 6: Layer Row Column Elevation Cond IFACE
     1    81   102  1.776000000000E+002   1.000000000000E+003      0 # Data Set 6: Layer Row Column Elevation Cond IFACE
     1    81   103  1.788000000000E+002   1.000000000000E+003      0 # Data Set 6: Layer Row Column Elevation Cond IFACE
     1    81   104  1.801000000000E+002   1.000000000000E+003      0 # Data Set 6: Layer Row Column Elevation Cond IFACE
     1    81   105  1.801000000000E+002   1.000000000000E+003      0 # Data Set 6: Layer Row Column Elevation Cond IFACE
     1    82   106  1.801000000000E+002   1.000000000000E+003      0 # Data Set 6: Layer Row Column Elevation Cond IFACE
     1    82   107  1.814000000000E+002   1.000000000000E+003      0 # Data Set 6: Layer Row Column Elevation Cond IFACE
     1    82   108  1.809000000000E+002   1.000000000000E+003      0 # Data Set 6: Layer Row Column Elevation Cond IFACE
     1    81   109  1.832000000000E+002   1.000000000000E+003      0 # Data Set 6: Layer Row Column Elevation Cond IFACE
     1    81   110  1.832000000000E+002   1.000000000000E+003      0 # Data Set 6: Layer Row Column Elevation Cond IFACE
     1    81   111  1.847000000000E+002   1.000000000000E+003      0 # Data Set 6: Layer Row Column Elevation Cond IFACE
     1    81   112  1.857000000000E+002   1.000000000000E+003      0 # Data Set 6: Layer Row Column Elevation Cond IFACE
     1    81   113  1.851000000000E+002   1.000000000000E+003      0 # Data Set 6: Layer Row Column Elevation Cond IFACE
     1    81   114  1.853000000000E+002   1.000000000000E+003      0 # Data Set 6: Layer Row Column Elevation Cond IFACE
     1    81   115  1.853000000000E+002   1.000000000000E+003      0 # Data Set 6: Layer Row Column Elevation Cond IFACE
     1    80   116  1.901000000000E+002   1.000000000000E+003      0 # Data Set 6: Layer Row Column Elevation Cond IFACE
     1    79   117  1.914000000000E+002   1.000000000000E+003      0 # Data Set 6: Layer Row Column Elevation Cond IFACE
     1    79   118  1.919000000000E+002   1.000000000000E+003      0 # Data Set 6: Layer Row Column Elevation Cond IFACE
     1    78   119  1.930000000000E+002   1.000000000000E+003      0 # Data Set 6: Layer Row Column Elevation Cond IFACE
     1    78   120  1.930000000000E+002   1.000000000000E+003      0 # Data Set 6: Layer Row Column Elevation Cond IFACE
     1    78   121  1.947000000000E+002   1.000000000000E+003      0 # Data Set 6: Layer Row Column Elevation Cond IFACE
     1    77   122  1.972000000000E+002   1.000000000000E+003      0 # Data Set 6: Layer Row Column Elevation Cond IFACE
     1    77   123  1.971000000000E+002   1.000000000000E+003      0 # Data Set 6: Layer Row Column Elevation Cond IFACE
     1    76   124  1.990000000000E+002   1.000000000000E+003      0 # Data Set 6: Layer Row Column Elevation Cond IFACE
     1    76   125  1.990000000000E+002   1.000000000000E+003      0 # Data Set 6: Layer Row Column Elevation Cond IFACE
     1    76   126  1.998000000000E+002   1.000000000000E+003      0 # Data Set 6: Layer Row Column Elevation Cond IFACE
     1    75   127  2.031000000000E+002   1.000000000000E+003      0 # Data Set 6: Layer Row Column Elevation Cond IFACE
     1    75   128  2.049000000000E+002   1.000000000000E+003      0 # Data Set 6: Layer Row Column Elevation Cond IFACE
     1    75   129  2.065000000000E+002   1.000000000000E+003      0 # Data Set 6: Layer Row Column Elevation Cond IFACE
     1    75   130  2.065000000000E+002   1.000000000000E+003      0 # Data Set 6: Layer Row Column Elevation Cond IFACE
     1    75   131  2.077000000000E+002   1.000000000000E+003      0 # Data Set 6: Layer Row Column Elevation Cond IFACE
     1    74   132  2.072000000000E+002   1.000000000000E+003      0 # Data Set 6: Layer Row Column Elevation Cond IFACE
     1    74   133  2.075000000000E+002   1.000000000000E+003      0 # Data Set 6: Layer Row Column Elevation Cond IFACE
     1    74   134  2.090000000000E+002   1.000000000000E+003      0 # Data Set 6: Layer Row Column Elevation Cond IFACE
     1    74   135  2.090000000000E+002   1.000000000000E+003      0 # Data Set 6: Layer Row Column Elevation Cond IFACE
     1    74   136  2.093000000000E+002   1.000000000000E+003      0 # Data Set 6: Layer Row Column Elevation Cond IFACE
     1    73   137  2.108000000000E+002   1.000000000000E+003      0 # Data Set 6: Layer Row Column Elevation Cond IFACE
     1    72   138  2.126000000000E+002   1.000000000000E+003      0 # Data Set 6: Layer Row Column Elevation Cond IFACE
     1    72   139  2.132000000000E+002   1.000000000000E+003      0 # Data Set 6: Layer Row Column Elevation Cond IFACE
     1    72   140  2.132000000000E+002   1.000000000000E+003      0 # Data Set 6: Layer Row Column Elevation Cond IFACE
     1    72   141  2.134000000000E+002   1.000000000000E+003      0 # Data Set 6: Layer Row Column Elevation Cond IFACE
     1    72   142  2.147000000000E+002   1.000000000000E+003      0 # Data Set 6: Layer Row Column Elevation Cond IFACE
     1    72   143  2.158000000000E+002   1.000000000000E+003      0 # Data Set 6: Layer Row Column Elevation Cond IFACE
     1    72   144  2.186000000000E+002   1.000000000000E+003      0 # Data Set 6: Layer Row Column Elevation Cond IFACE
     1    72   145  2.186000000000E+002   1.000000000000E+003      0 # Data Set 6: Layer Row Column Elevation Cond IFACE
     1    71   146  2.200000000000E+002   1.000000000000E+003      0 # Data Set 6: Layer Row Column Elevation Cond IFACE
     1    71   147  2.214000000000E+002   1.000000000000E+003      0 # Data Set 6: Layer Row Column Elevation Cond IFACE
     1    71   148  2.232000000000E+002   1.000000000000E+003      0 # Data Set 6: Layer Row Column Elevation Cond IFACE
     1    70   149  2.239000000000E+002   1.000000000000E+003      0 # Data Set 6: Layer Row Column Elevation Cond IFACE
     1    71   149  2.265000000000E+002   1.000000000000E+003      0 # Data Set 6: Layer Row Column Elevation Cond IFACE
     1    69   150  2.239000000000E+002   1.000000000000E+003      0 # Data Set 6: Layer Row Column Elevation Cond IFACE
     1    69   151  2.282000000000E+002   1.000000000000E+003      0 # Data Set 6: Layer Row Column Elevation Cond IFACE
     1    69   152  2.322000000000E+002   1.000000000000E+003      0 # Data Set 6: Layer Row Column Elevation Cond IFACE
     1    69   153  2.312000000000E+002   1.000000000000E+003      0 # Data Set 6: Layer Row Column Elevation Cond IFACE
     1    69   154  2.279000000000E+002   1.000000000000E+003      0 # Data Set 6: Layer Row Column Elevation Cond IFACE
     1    69   155  2.279000000000E+002   1.000000000000E+003      0 # Data Set 6: Layer Row Column Elevation Cond IFACE
     1    68   156  2.305000000000E+002   1.000000000000E+003      0 # Data Set 6: Layer Row Column Elevation Cond IFACE
     1    67   157  2.319000000000E+002   1.000000000000E+003      0 # Data Set 6: Layer Row Column Elevation Cond IFACE
     1    67   158  2.329000000000E+002   1.000000000000E+003      0 # Data Set 6: Layer Row Column Elevation Cond IFACE
     1    67   159  2.343000000000E+002   1.000000000000E+003      0 # Data Set 6: Layer Row Column Elevation Cond IFACE
     1    66   160  2.338000000000E+002   1.000000000000E+003      0 # Data Set 6: Layer Row Column Elevation Cond IFACE
     1    63   161  2.374000000000E+002   1.000000000000E+003      0 # Data Set 6: Layer Row Column Elevation Cond IFACE
     1    64   161  2.353000000000E+002   1.000000000000E+003      0 # Data Set 6: Layer Row Column Elevation Cond IFACE
     1    65   161  2.353000000000E+002   1.000000000000E+003      0 # Data Set 6: Layer Row Column Elevation Cond IFACE
     1    62   162  2.409000000000E+002   1.000000000000E+003      0 # Data Set 6: Layer Row Column Elevation Cond IFACE
     1    62   163  2.408000000000E+002   1.000000000000E+003      0 # Data Set 6: Layer Row Column Elevation Cond IFACE
     1    62   164  2.408000000000E+002   1.000000000000E+003      0 # Data Set 6: Layer Row Column Elevation Cond IFACE
     1    62   165  2.408000000000E+002   1.000000000000E+003      0 # Data Set 6: Layer Row Column Elevation Cond IFACE
     1    62   166  2.438000000000E+002   1.000000000000E+003      0 # Data Set 6: Layer Row Column Elevation Cond IFACE
     1    61   167  2.443000000000E+002   1.000000000000E+003      0 # Data Set 6: Layer Row Column Elevation Cond IFACE
     1    60   168  2.466000000000E+002   1.000000000000E+003      0 # Data Set 6: Layer Row Column Elevation Cond IFACE
     1    59   169  2.481000000000E+002   1.000000000000E+003      0 # Data Set 6: Layer Row Column Elevation Cond IFACE
     1    59   170  2.481000000000E+002   1.000000000000E+003      0 # Data Set 6: Layer Row Column Elevation Cond IFACE
     1    59   171  2.478000000000E+002   1.000000000000E+003      0 # Data Set 6: Layer Row Column Elevation Cond IFACE
     1    58   172  2.524000000000E+002   1.000000000000E+003      0 # Data Set 6: Layer Row Column Elevation Cond IFACE
     1    57   173  2.522000000000E+002   1.000000000000E+003      0 # Data Set 6: Layer Row Column Elevation Cond IFACE
     1    55   174  2.565000000000E+002   1.000000000000E+003      0 # Data Set 6: Layer Row Column Elevation Cond IFACE
     1    56   174  2.562000000000E+002   1.000000000000E+003      0 # Data Set 6: Layer Row Column Elevation Cond IFACE
     1    53   175  2.598000000000E+002   1.000000000000E+003      0 # Data Set 6: Layer Row Column Elevation Cond IFACE
     1    54   175  2.565000000000E+002   1.000000000000E+003      0 # Data Set 6: Layer Row Column Elevation Cond IFACE
     1    52   176  2.624000000000E+002   1.000000000000E+003      0 # Data Set 6: Layer Row Column Elevation Cond IFACE
     1    52   177  2.634000000000E+002   1.000000000000E+003      0 # Data Set 6: Layer Row Column Elevation Cond IFACE
     1    51   178  2.637000000000E+002   1.000000000000E+003      0 # Data Set 6: Layer Row Column Elevation Cond IFACE
     1    52   178  2.654000000000E+002   1.000000000000E+003      0 # Data Set 6: Layer Row Column Elevation Cond IFACE
     1    50   179  2.665000000000E+002   1.000000000000E+003      0 # Data Set 6: Layer Row Column Elevation Cond IFACE
     1    50   180  2.665000000000E+002   1.000000000000E+003      0 # Data Set 6: Layer Row Column Elevation Cond IFACE
     1    50   181  2.669000000000E+002   1.000000000000E+003      0 # Data Set 6: Layer Row Column Elevation Cond IFACE
     1    49   182  2.684000000000E+002   1.000000000000E+003      0 # Data Set 6: Layer Row Column Elevation Cond IFACE
     1    49   183  2.701000000000E+002   1.000000000000E+003      0 # Data Set 6: Layer Row Column Elevation Cond IFACE
     1    49   184  2.720000000000E+002   1.000000000000E+003      0 # Data Set 6: Layer Row Column Elevation Cond IFACE
     1    49   185  2.720000000000E+002   1.000000000000E+003      0 # Data Set 6: Layer Row Column Elevation Cond IFACE
     1    49   186  2.740000000000E+002   1.000000000000E+003      0 # Data Set 6: Layer Row Column Elevation Cond IFACE
     1    48   187  2.758000000000E+002   1.000000000000E+003      0 # Data Set 6: Layer Row Column Elevation Cond IFACE
     1    48   188  2.760000000000E+002   1.000000000000E+003      0 # Data Set 6: Layer Row Column Elevation Cond IFACE
     1    48   189  2.790000000000E+002   2.000000000000E+002      0 # Data Set 6: Layer Row Column Elevation Cond IFACE
     1    49   190  2.788000000000E+002   2.000000000000E+002      0 # Data Set 6: Layer Row Column Elevation Cond IFACE
     1    50   190  2.788000000000E+002   2.000000000000E+002      0 # Data Set 6: Layer Row Column Elevation Cond IFACE
     1    50   191  2.806000000000E+002   2.000000000000E+002      0 # Data Set 6: Layer Row Column Elevation Cond IFACE
     1    50   192  2.802000000000E+002   2.000000000000E+002      0 # Data Set 6: Layer Row Column Elevation Cond IFACE
     1    51   193  2.816000000000E+002   2.000000000000E+002      0 # Data Set 6: Layer Row Column Elevation Cond IFACE
     1    51   194  2.846000000000E+002   2.000000000000E+002      0 # Data Set 6: Layer Row Column Elevation Cond IFACE
     1    52   195  2.838000000000E+002   2.000000000000E+002      0 # Data Set 6: Layer Row Column Elevation Cond IFACE
     1    53   196  2.851000000000E+002   2.000000000000E+002      0 # Data Set 6: Layer Row Column Elevation Cond IFACE
     1    53   197  2.854000000000E+002   2.000000000000E+002      0 # Data Set 6: Layer Row Column Elevation Cond IFACE
     1    53   198  2.872000000000E+002   2.000000000000E+002      0 # Data Set 6: Layer Row Column Elevation Cond IFACE
     1    54   199  2.873000000000E+002   2.000000000000E+002      0 # Data Set 6: Layer Row Column Elevation Cond IFACE
     1    54   200  2.873000000000E+002   2.000000000000E+002      0 # Data Set 6: Layer Row Column Elevation Cond IFACE
     1    54   201  2.886000000000E+002   2.000000000000E+002      0 # Data Set 6: Layer Row Column Elevation Cond IFACE
     1    53   202  2.911000000000E+002   2.000000000000E+002      0 # Data Set 6: Layer Row Column Elevation Cond IFACE
     1    52   203  2.943000000000E+002   2.000000000000E+002      0 # Data Set 6: Layer Row Column Elevation Cond IFACE
     1    52   204  2.958000000000E+002   2.000000000000E+002      0 # Data Set 6: Layer Row Column Elevation Cond IFACE
     1    52   205  2.958000000000E+002   2.000000000000E+002      0 # Data Set 6: Layer Row Column Elevation Cond IFACE
     1    52   206  2.972000000000E+002   2.000000000000E+002      0 # Data Set 6: Layer Row Column Elevation Cond IFACE
     1    52   207  2.983000000000E+002   2.000000000000E+002      0 # Data Set 6: Layer Row Column Elevation Cond IFACE
     1    53   208  2.979000000000E+002   2.000000000000E+002      0 # Data Set 6: Layer Row Column Elevation Cond IFACE
     1    53   209  3.005000000000E+002   2.000000000000E+002      0 # Data Set 6: Layer Row Column Elevation Cond IFACE
     1    54   210  3.036000000000E+002   2.000000000000E+002      0 # Data Set 6: Layer Row Column Elevation Cond IFACE
     1    54   211  3.066000000000E+002   2.000000000000E+002      0 # Data Set 6: Layer Row Column Elevation Cond IFACE
     1    54   212  3.041000000000E+002   2.000000000000E+002      0 # Data Set 6: Layer Row Column Elevation Cond IFACE
     1    54   213  3.064000000000E+002   2.000000000000E+002      0 # Data Set 6: Layer Row Column Elevation Cond IFACE
     1    55   214  3.087000000000E+002   2.000000000000E+002      0 # Data Set 6: Layer Row Column Elevation Cond IFACE
     1    56   215  3.103000000000E+002   2.000000000000E+002      0 # Data Set 6: Layer Row Column Elevation Cond IFACE
     1    56   216  3.102000000000E+002   2.000000000000E+002      0 # Data Set 6: Layer Row Column Elevation Cond IFACE
     1    57   217  3.121000000000E+002   2.000000000000E+002      0 # Data Set 6: Layer Row Column Elevation Cond IFACE
     1    58   217  3.158000000000E+002   2.000000000000E+002      0 # Data Set 6: Layer Row Column Elevation Cond IFACE
     1    59   218  3.147000000000E+002   2.000000000000E+002      0 # Data Set 6: Layer Row Column Elevation Cond IFACE
     1    60   219  3.164000000000E+002   2.000000000000E+002      0 # Data Set 6: Layer Row Column Elevation Cond IFACE
     1    61   220  3.164000000000E+002   2.000000000000E+002      0 # Data Set 6: Layer Row Column Elevation Cond IFACE
     1    62   221  3.221000000000E+002   2.000000000000E+002      0 # Data Set 6: Layer Row Column Elevation Cond IFACE
     1    63   222  3.226000000000E+002   2.000000000000E+002      0 # Data Set 6: Layer Row Column Elevation Cond IFACE
     1    64   223  3.254000000000E+002   2.000000000000E+002      0 # Data Set 6: Layer Row Column Elevation Cond IFACE
     1    64   224  3.272000000000E+002   2.000000000000E+002      0 # Data Set 6: Layer Row Column Elevation Cond IFACE
     1    65   225  3.272000000000E+002   2.000000000000E+002      0 # Data Set 6: Layer Row Column Elevation Cond IFACE
     1    65   226  3.286000000000E+002   2.000000000000E+002      0 # Data Set 6: Layer Row Column Elevation Cond IFACE
     1    66   227  3.307000000000E+002   2.000000000000E+002      0 # Data Set 6: Layer Row Column Elevation Cond IFACE
     1    67   228  3.324000000000E+002   2.000000000000E+002      0 # Data Set 6: Layer Row Column Elevation Cond IFACE
     1    67   229  3.344000000000E+002   2.000000000000E+002      0 # Data Set 6: Layer Row Column Elevation Cond IFACE
     1    68   230  3.359000000000E+002   2.000000000000E+002      0 # Data Set 6: Layer Row Column Elevation Cond IFACE
     1    69   231  3.387000000000E+002   2.000000000000E+002      0 # Data Set 6: Layer Row Column Elevation Cond IFACE
     1    70   232  3.402000000000E+002   2.000000000000E+002      0 # Data Set 6: Layer Row Column Elevation Cond IFACE
     1    71   233  3.446000000000E+002   2.000000000000E+002      0 # Data Set 6: Layer Row Column Elevation Cond IFACE
     1    71   234  3.462000000000E+002   2.000000000000E+002      0 # Data Set 6: Layer Row Column Elevation Cond IFACE
     1    72   235  3.456000000000E+002   2.000000000000E+002      0 # Data Set 6: Layer Row Column Elevation Cond IFACE
     1    73   236  3.464000000000E+002   2.000000000000E+002      0 # Data Set 6: Layer Row Column Elevation Cond IFACE
     1    73   237  3.489000000000E+002   2.000000000000E+002      0 # Data Set 6: Layer Row Column Elevation Cond IFACE
     1    74   238  3.517000000000E+002   2.000000000000E+002      0 # Data Set 6: Layer Row Column Elevation Cond IFACE
     1    75   239  3.542000000000E+002   2.000000000000E+002      0 # Data Set 6: Layer Row Column Elevation Cond IFACE
     1    75   240  3.542000000000E+002   2.000000000000E+002      0 # Data Set 6: Layer Row Column Elevation Cond IFACE