if not exist "..\..\output\NUL" mkdir "..\..\output"
if not exist "..\..\output\output.gv6nwt\NUL" mkdir "..\..\output\output.gv6nwt"
..\..\bin\MODFLOW-NWT.exe gv6nwt.nam /wait
pause
