# OC package for  MODFLOW-NWT, generated by Flopy.
HEAD PRINT FORMAT   0
HEAD SAVE UNIT    51
DRAWDOWN PRINT FORMAT   0
COMPACT BUDGET AUX

period 1 step 1 
  save head
  save budget

period 3 step 1 
  save head
  save budget

period 5 step 1 
  save head
  save budget

period 7 step 1 
  save head
  save budget

period 9 step 1 
  save head
  save budget

period 11 step 1 
  save head
  save budget

period 13 step 1 
  save head
  save budget

period 15 step 1 
  save head
  save budget

period 17 step 1 
  save head
  save budget

period 19 step 1 
  save head
  save budget

period 21 step 1 
  save head
  save budget

period 23 step 1 
  save head
  save budget

period 25 step 1 
  save head
  save budget

period 27 step 1 
  save head
  save budget

period 29 step 1 
  save head
  save budget

period 31 step 1 
  save head
  save budget

period 33 step 1 
  save head
  save budget

period 35 step 1 
  save head
  save budget

period 37 step 1 
  save head
  save budget

period 39 step 1 
  save head
  save budget

period 41 step 1 
  save head
  save budget

period 43 step 1 
  save head
  save budget

period 45 step 1 
  save head
  save budget

period 47 step 1 
  save head
  save budget

period 49 step 1 
  save head
  save budget

period 51 step 1 
  save head
  save budget

period 53 step 1 
  save head
  save budget

period 55 step 1 
  save head
  save budget

period 57 step 1 
  save head
  save budget

period 59 step 1 
  save head
  save budget

period 61 step 1 
  save head
  save budget

period 63 step 1 
  save head
  save budget

period 65 step 1 
  save head
  save budget

period 67 step 1 
  save head
  save budget

period 69 step 1 
  save head
  save budget

period 71 step 1 
  save head
  save budget

period 73 step 1 
  save head
  save budget

period 75 step 1 
  save head
  save budget

period 77 step 1 
  save head
  save budget

period 79 step 1 
  save head
  save budget

period 81 step 1 
  save head
  save budget

period 83 step 1 
  save head
  save budget

period 85 step 1 
  save head
  save budget

period 87 step 1 
  save head
  save budget

period 89 step 1 
  save head
  save budget

period 91 step 1 
  save head
  save budget

period 93 step 1 
  save head
  save budget

period 95 step 1 
  save head
  save budget

period 97 step 1 
  save head
  save budget

period 99 step 1 
  save head
  save budget

