# WEL package for  MODFLOW-NWT, generated by Flopy.
       186      1053 
       186         0 # stress period 1
         1        69       225             0.0
         1        71       224         -6048.0
         1        74       220         -6134.4
         1        73       220         -5788.8
         1        71       223         -6220.8
         1        71       223         -7344.0
         1        72       223         -6393.6
         1        92       173         -6652.8
         1        94       174         -5875.2
         1        93       175         -5875.2
         1       203       328         -5875.2
         1       438       460      -1198.3671
         1       436       461      -1198.3671
         1       410       454      -1198.3671
         1       433       460      -1198.3671
         1       431       462      -1198.3671
         1       417       459      -1198.3671
         1       418       458      -1198.3671
         1       414       455      -1198.3671
         1       443       464      -1198.3671
         1       379       425      -1198.3671
         1       362       405      -1198.3671
         1       361       405      -1198.3671
         1       362       406      -1198.3671
         1       363       408      -1198.3671
         1       364       410      -1198.3671
         1       369       418      -1198.3671
         1       367       417      -1198.3671
         1       365       415      -1198.3671
         1       402       447      -1198.3671
         1       400       446      -1198.3671
         1       392       444      -1198.3671
         1       391       441      -1198.3671
         1       403       448      -1198.3671
         1       405       447      -1198.3671
         1       362       410      -1198.3671
         1       362       411      -1198.3671
         1       363       412      -1198.3671
         1       375       421      -1198.3671
         1       383       430      -1198.3671
         1       397       445      -1198.3671
         1       360       403      -1198.3671
         1       350       401      -1198.3671
         1       346       393      -821.87384
         1       333       387      -821.87384
         1       328       384      -821.87384
         1       326       383      -821.87384
         1       323       378      -821.87384
         1       321       378      -821.87384
         1       322       376      -821.87384
         1       316       374      -821.87384
         1       311       371      -821.87384
         1       307       369      -821.87384
         1       305       368      -821.87384
         1       303       368      -821.87384
         1       300       369      -821.87384
         1       293       364      -821.87384
         1       292       362      -821.87384
         1       278       350      -821.87384
         1       274       351      -821.87384
         1       273       350      -821.87384
         1       271       350      -821.87384
         1       267       348      -821.87384
         1       263       348      -821.87384
         1       263       348      -821.87384
         1       248       347      -821.87384
         1       243       342      -821.87384
         1       242       339      -821.87384
         1       238       341      -821.87384
         1       233       340      -821.87384
         1       232       340      -821.87384
         1       229       341      -821.87384
         1       227       341      -821.87384
         1       219       342      -821.87384
         1       219       336      -821.87384
         1       199       329      -821.87384
         1       191       332      -1403.7733
         1       190       332      -1403.7733
         1       130       310      -1403.7733
         1       123       305      -1403.7733
         1       104       289      -1403.7733
         1        96       287       -1594.648
         1        95       284       -1594.648
         1        95       280       -1594.648
         1        93       276       -1594.648
         1        94       275       -1594.648
         1        90       277       -1594.648
         1        90       273       -1594.648
         1        86       271       -1594.648
         1        85       270       -1594.648
         1        84       265       -1594.648
         1        85       265       -1594.648
         1        84       264       -1594.648
         1        79       263       -1594.648
         1        79       263       -1594.648
         1        76       262       -1594.648
         1        73       257       -1594.648
         1        74       255       -1594.648
         1        71       255       -1594.648
         1        66       253       -1594.648
         1        68       252       -1594.648
         1        69       250       -1594.648
         1        65       248       -1594.648
         1        68       248       -1594.648
         1        69       247       -1594.648
         1        73       247       -1594.648
         1        64       246       -1594.648
         1        69       245       -1594.648
         1        72       245       -1594.648
         1        69       241       -1594.648
         1        73       238       -1594.648
         1        70       238       -1594.648
         1        76       263       -1594.648
         1        66       232      -1041.4027
         1        69       229      -1041.4027
         1        71       228      -1041.4027
         1        69       227      -1041.4027
         1        72       219      -1041.4027
         1        72       218      -1041.4027
         1        72       218      -1041.4027
         1        73       217      -1041.4027
         1        77       219      -1041.4027
         1        78       219      -1041.4027
         1        83       213      -1041.4027
         1        77       213      -1041.4027
         1        81       211      -1041.4027
         1        81       210      -1041.4027
         1        81       210      -1041.4027
         1        82       208      -1041.4027
         1        80       205      -1041.4027
         1        86       202      -1041.4027
         1        84       200      -1041.4027
         1        89       200      -1041.4027
         1        89       199      -1041.4027
         1        88       199      -1041.4027
         1        86       199      -1041.4027
         1        85       199      -1041.4027
         1        82       197      -1041.4027
         1        86       197      -1041.4027
         1        88       198      -1041.4027
         1        90       192      -1041.4027
         1        89       191      -1041.4027
         1        84       192      -1041.4027
         1        91       189      -1041.4027
         1        92       185      -1041.4027
         1        87       183      -1041.4027
         1        92       182      -1041.4027
         1        90       182      -1041.4027
         1        88       179      -1041.4027
         1        89       176      -1041.4027
         1        92       172      -1041.4027
         1        93       164      -1041.4027
         1        94       162      -1041.4027
         1       103       156      -1041.4027
         1       103       156      -1041.4027
         1        96       154      -1041.4027
         1        97       153      -1041.4027
         1       122       139      -1041.4027
         1        92        77      -1041.4027
         1        94        77      -1041.4027
         1        94        73      -1041.4027
         1        97       152      -1041.4027
         1       118       337       -666.6666
         1       133       319         -2678.4
         1       131       320      -3951.0332
         1       133       321       -2955.933
         1       161       329         -2140.7
         1       178       330       -551.0334
         1       163       330      -1122.2997
         1       131       320      -2472.7664
         1       129       315      -3936.7002
         1       162       329       -1958.567
         1       131       311      -826.10004
         1       137       322       -2081.967
         1       137       321      -1406.5669
         1       185       329      -2012.0892
         1       183       329       -1472.777
         1       175       329       -585.3333
         1       139       327      -1330.9739
         1       221       340      -1993.9996
         1       220       340      -1033.9998
         1       221       340       -667.6666
         1       199       329      -1617.3337
         1       198       330      -2513.9998
         1        79       243      -1490.2333
         1        77       245      -2413.7334
       186         0 # stress period 2
         1        69       225           -86.4
         1        71       224         -6048.0
         1        74       220         -6134.4
         1        73       220         -5788.8
         1        71       223         -6220.8
         1        71       223         -7344.0
         1        72       223         -6393.6
         1        92       173         -6652.8
         1        94       174         -5875.2
         1        93       175         -5875.2
         1       203       328         -5875.2
         1       438       460      -2704.8325
         1       436       461      -2704.8325
         1       410       454      -2704.8325
         1       433       460      -2704.8325
         1       431       462      -2704.8325
         1       417       459      -2704.8325
         1       418       458      -2704.8325
         1       414       455      -2704.8325
         1       443       464      -2704.8325
         1       379       425      -2704.8325
         1       362       405      -2704.8325
         1       361       405      -2704.8325
         1       362       406      -2704.8325
         1       363       408      -2704.8325
         1       364       410      -2704.8325
         1       369       418      -2704.8325
         1       367       417      -2704.8325
         1       365       415      -2704.8325
         1       402       447      -2704.8325
         1       400       446      -2704.8325
         1       392       444      -2704.8325
         1       391       441      -2704.8325
         1       403       448      -2704.8325
         1       405       447      -2704.8325
         1       362       410      -2704.8325
         1       362       411      -2704.8325
         1       363       412      -2704.8325
         1       375       421      -2704.8325
         1       383       430      -2704.8325
         1       397       445      -2704.8325
         1       360       403      -2704.8325
         1       350       401      -2704.8325
         1       346       393      -2229.6877
         1       333       387      -2229.6877
         1       328       384      -2229.6877
         1       326       383      -2229.6877
         1       323       378      -2229.6877
         1       321       378      -2229.6877
         1       322       376      -2229.6877
         1       316       374      -2229.6877
         1       311       371      -2229.6877
         1       307       369      -2229.6877
         1       305       368      -2229.6877
         1       303       368      -2229.6877
         1       300       369      -2229.6877
         1       293       364      -2229.6877
         1       292       362      -2229.6877
         1       278       350      -2229.6877
         1       274       351      -2229.6877
         1       273       350      -2229.6877
         1       271       350      -2229.6877
         1       267       348      -2229.6877
         1       263       348      -2229.6877
         1       263       348      -2229.6877
         1       248       347      -2229.6877
         1       243       342      -2229.6877
         1       242       339      -2229.6877
         1       238       341      -2229.6877
         1       233       340      -2229.6877
         1       232       340      -2229.6877
         1       229       341      -2229.6877
         1       227       341      -2229.6877
         1       219       342      -2229.6877
         1       219       336      -2229.6877
         1       199       329      -2229.6877
         1       191       332      -3047.1904
         1       190       332      -3047.1904
         1       130       310      -3047.1904
         1       123       305      -3047.1904
         1       104       289      -3047.1904
         1        96       287      -3536.4595
         1        95       284      -3536.4595
         1        95       280      -3536.4595
         1        93       276      -3536.4595
         1        94       275      -3536.4595
         1        90       277      -3536.4595
         1        90       273      -3536.4595
         1        86       271      -3536.4595
         1        85       270      -3536.4595
         1        84       265      -3536.4595
         1        85       265      -3536.4595
         1        84       264      -3536.4595
         1        79       263      -3536.4595
         1        79       263      -3536.4595
         1        76       262      -3536.4595
         1        73       257      -3536.4595
         1        74       255      -3536.4595
         1        71       255      -3536.4595
         1        66       253      -3536.4595
         1        68       252      -3536.4595
         1        69       250      -3536.4595
         1        65       248      -3536.4595
         1        68       248      -3536.4595
         1        69       247      -3536.4595
         1        73       247      -3536.4595
         1        64       246      -3536.4595
         1        69       245      -3536.4595
         1        72       245      -3536.4595
         1        69       241      -3536.4595
         1        73       238      -3536.4595
         1        70       238      -3536.4595
         1        76       263      -3536.4595
         1        66       232      -2309.5247
         1        69       229      -2309.5247
         1        71       228      -2309.5247
         1        69       227      -2309.5247
         1        72       219      -2309.5247
         1        72       218      -2309.5247
         1        72       218      -2309.5247
         1        73       217      -2309.5247
         1        77       219      -2309.5247
         1        78       219      -2309.5247
         1        83       213      -2309.5247
         1        77       213      -2309.5247
         1        81       211      -2309.5247
         1        81       210      -2309.5247
         1        81       210      -2309.5247
         1        82       208      -2309.5247
         1        80       205      -2309.5247
         1        86       202      -2309.5247
         1        84       200      -2309.5247
         1        89       200      -2309.5247
         1        89       199      -2309.5247
         1        88       199      -2309.5247
         1        86       199      -2309.5247
         1        85       199      -2309.5247
         1        82       197      -2309.5247
         1        86       197      -2309.5247
         1        88       198      -2309.5247
         1        90       192      -2309.5247
         1        89       191      -2309.5247
         1        84       192      -2309.5247
         1        91       189      -2309.5247
         1        92       185      -2309.5247
         1        87       183      -2309.5247
         1        92       182      -2309.5247
         1        90       182      -2309.5247
         1        88       179      -2309.5247
         1        89       176      -2309.5247
         1        92       172      -2309.5247
         1        93       164      -2309.5247
         1        94       162      -2309.5247
         1       103       156      -2309.5247
         1       103       156      -2309.5247
         1        96       154      -2309.5247
         1        97       153      -2309.5247
         1       122       139      -2309.5247
         1        92        77      -2309.5247
         1        94        77      -2309.5247
         1        94        73      -2309.5247
         1        97       152      -2309.5247
         1       118       337       -666.6666
         1       133       319         -2678.4
         1       131       320      -3951.0332
         1       133       321       -2955.933
         1       161       329         -2140.7
         1       178       330       -551.0334
         1       163       330      -1122.2997
         1       131       320      -2472.7664
         1       129       315      -3936.7002
         1       162       329       -1958.567
         1       131       311      -826.10004
         1       137       322       -2081.967
         1       137       321      -1406.5669
         1       185       329      -2012.0892
         1       183       329       -1472.777
         1       175       329       -585.3333
         1       139       327      -1330.9739
         1       221       340      -1993.9996
         1       220       340      -1033.9998
         1       221       340       -667.6666
         1       199       329      -1617.3337
         1       198       330      -2513.9998
         1        79       243      -1490.2333
         1        77       245      -2413.7334
       186         0 # stress period 3
         1        69       225          -172.8
         1        71       224         -6048.0
         1        74       220         -6134.4
         1        73       220         -5788.8
         1        71       223         -6220.8
         1        71       223         -7344.0
         1        72       223         -6393.6
         1        92       173         -6652.8
         1        94       174         -5875.2
         1        93       175         -5875.2
         1       203       328         -5875.2
         1       438       460      -2346.2107
         1       436       461      -2346.2107
         1       410       454      -2346.2107
         1       433       460      -2346.2107
         1       431       462      -2346.2107
         1       417       459      -2346.2107
         1       418       458      -2346.2107
         1       414       455      -2346.2107
         1       443       464      -2346.2107
         1       379       425      -2346.2107
         1       362       405      -2346.2107
         1       361       405      -2346.2107
         1       362       406      -2346.2107
         1       363       408      -2346.2107
         1       364       410      -2346.2107
         1       369       418      -2346.2107
         1       367       417      -2346.2107
         1       365       415      -2346.2107
         1       402       447      -2346.2107
         1       400       446      -2346.2107
         1       392       444      -2346.2107
         1       391       441      -2346.2107
         1       403       448      -2346.2107
         1       405       447      -2346.2107
         1       362       410      -2346.2107
         1       362       411      -2346.2107
         1       363       412      -2346.2107
         1       375       421      -2346.2107
         1       383       430      -2346.2107
         1       397       445      -2346.2107
         1       360       403      -2346.2107
         1       350       401      -2346.2107
         1       346       393      -1952.4468
         1       333       387      -1952.4468
         1       328       384      -1952.4468
         1       326       383      -1952.4468
         1       323       378      -1952.4468
         1       321       378      -1952.4468
         1       322       376      -1952.4468
         1       316       374      -1952.4468
         1       311       371      -1952.4468
         1       307       369      -1952.4468
         1       305       368      -1952.4468
         1       303       368      -1952.4468
         1       300       369      -1952.4468
         1       293       364      -1952.4468
         1       292       362      -1952.4468
         1       278       350      -1952.4468
         1       274       351      -1952.4468
         1       273       350      -1952.4468
         1       271       350      -1952.4468
         1       267       348      -1952.4468
         1       263       348      -1952.4468
         1       263       348      -1952.4468
         1       248       347      -1952.4468
         1       243       342      -1952.4468
         1       242       339      -1952.4468
         1       238       341      -1952.4468
         1       233       340      -1952.4468
         1       232       340      -1952.4468
         1       229       341      -1952.4468
         1       227       341      -1952.4468
         1       219       342      -1952.4468
         1       219       336      -1952.4468
         1       199       329      -1952.4468
         1       191       332      -2877.2537
         1       190       332      -2877.2537
         1       130       310      -2877.2537
         1       123       305      -2877.2537
         1       104       289      -2877.2537
         1        96       287       -3588.318
         1        95       284       -3588.318
         1        95       280       -3588.318
         1        93       276       -3588.318
         1        94       275       -3588.318
         1        90       277       -3588.318
         1        90       273       -3588.318
         1        86       271       -3588.318
         1        85       270       -3588.318
         1        84       265       -3588.318
         1        85       265       -3588.318
         1        84       264       -3588.318
         1        79       263       -3588.318
         1        79       263       -3588.318
         1        76       262       -3588.318
         1        73       257       -3588.318
         1        74       255       -3588.318
         1        71       255       -3588.318
         1        66       253       -3588.318
         1        68       252       -3588.318
         1        69       250       -3588.318
         1        65       248       -3588.318
         1        68       248       -3588.318
         1        69       247       -3588.318
         1        73       247       -3588.318
         1        64       246       -3588.318
         1        69       245       -3588.318
         1        72       245       -3588.318
         1        69       241       -3588.318
         1        73       238       -3588.318
         1        70       238       -3588.318
         1        76       263       -3588.318
         1        66       232      -2343.3914
         1        69       229      -2343.3914
         1        71       228      -2343.3914
         1        69       227      -2343.3914
         1        72       219      -2343.3914
         1        72       218      -2343.3914
         1        72       218      -2343.3914
         1        73       217      -2343.3914
         1        77       219      -2343.3914
         1        78       219      -2343.3914
         1        83       213      -2343.3914
         1        77       213      -2343.3914
         1        81       211      -2343.3914
         1        81       210      -2343.3914
         1        81       210      -2343.3914
         1        82       208      -2343.3914
         1        80       205      -2343.3914
         1        86       202      -2343.3914
         1        84       200      -2343.3914
         1        89       200      -2343.3914
         1        89       199      -2343.3914
         1        88       199      -2343.3914
         1        86       199      -2343.3914
         1        85       199      -2343.3914
         1        82       197      -2343.3914
         1        86       197      -2343.3914
         1        88       198      -2343.3914
         1        90       192      -2343.3914
         1        89       191      -2343.3914
         1        84       192      -2343.3914
         1        91       189      -2343.3914
         1        92       185      -2343.3914
         1        87       183      -2343.3914
         1        92       182      -2343.3914
         1        90       182      -2343.3914
         1        88       179      -2343.3914
         1        89       176      -2343.3914
         1        92       172      -2343.3914
         1        93       164      -2343.3914
         1        94       162      -2343.3914
         1       103       156      -2343.3914
         1       103       156      -2343.3914
         1        96       154      -2343.3914
         1        97       153      -2343.3914
         1       122       139      -2343.3914
         1        92        77      -2343.3914
         1        94        77      -2343.3914
         1        94        73      -2343.3914
         1        97       152      -2343.3914
         1       118       337       -666.6666
         1       133       319         -2678.4
         1       131       320      -3951.0332
         1       133       321       -2955.933
         1       161       329         -2140.7
         1       178       330       -551.0334
         1       163       330      -1122.2997
         1       131       320      -2472.7664
         1       129       315      -3936.7002
         1       162       329       -1958.567
         1       131       311      -826.10004
         1       137       322       -2081.967
         1       137       321      -1406.5669
         1       185       329      -2012.0892
         1       183       329       -1472.777
         1       175       329       -585.3333
         1       139       327      -1330.9739
         1       221       340      -1993.9996
         1       220       340      -1033.9998
         1       221       340       -667.6666
         1       199       329      -1617.3337
         1       198       330      -2513.9998
         1        79       243      -1490.2333
         1        77       245      -2413.7334
       186         0 # stress period 4
         1        69       225          -259.2
         1        71       224         -6048.0
         1        74       220         -6134.4
         1        73       220         -5788.8
         1        71       223         -6220.8
         1        71       223         -7344.0
         1        72       223         -6393.6
         1        92       173         -6652.8
         1        94       174         -5875.2
         1        93       175         -5875.2
         1       203       328         -5875.2
         1       438       460            -0.0
         1       436       461            -0.0
         1       410       454            -0.0
         1       433       460            -0.0
         1       431       462            -0.0
         1       417       459            -0.0
         1       418       458            -0.0
         1       414       455            -0.0
         1       443       464            -0.0
         1       379       425            -0.0
         1       362       405            -0.0
         1       361       405            -0.0
         1       362       406            -0.0
         1       363       408            -0.0
         1       364       410            -0.0
         1       369       418            -0.0
         1       367       417            -0.0
         1       365       415            -0.0
         1       402       447            -0.0
         1       400       446            -0.0
         1       392       444            -0.0
         1       391       441            -0.0
         1       403       448            -0.0
         1       405       447            -0.0
         1       362       410            -0.0
         1       362       411            -0.0
         1       363       412            -0.0
         1       375       421            -0.0
         1       383       430            -0.0
         1       397       445            -0.0
         1       360       403            -0.0
         1       350       401            -0.0
         1       346       393       -32.32056
         1       333       387       -32.32056
         1       328       384       -32.32056
         1       326       383       -32.32056
         1       323       378       -32.32056
         1       321       378       -32.32056
         1       322       376       -32.32056
         1       316       374       -32.32056
         1       311       371       -32.32056
         1       307       369       -32.32056
         1       305       368       -32.32056
         1       303       368       -32.32056
         1       300       369       -32.32056
         1       293       364       -32.32056
         1       292       362       -32.32056
         1       278       350       -32.32056
         1       274       351       -32.32056
         1       273       350       -32.32056
         1       271       350       -32.32056
         1       267       348       -32.32056
         1       263       348       -32.32056
         1       263       348       -32.32056
         1       248       347       -32.32056
         1       243       342       -32.32056
         1       242       339       -32.32056
         1       238       341       -32.32056
         1       233       340       -32.32056
         1       232       340       -32.32056
         1       229       341       -32.32056
         1       227       341       -32.32056
         1       219       342       -32.32056
         1       219       336       -32.32056